                                  MODFLOW-2005     
      U.S. GEOLOGICAL SURVEY MODULAR FINITE-DIFFERENCE GROUND-WATER FLOW MODEL
                            VERSION 1.12.00 2/3/2017

 LIST FILE: Test01.list
                         UNIT    2

 OPENING Test01.dis
 FILE TYPE:DIS   UNIT   11   STATUS:OLD    
 FORMAT:FORMATTED              ACCESS:SEQUENTIAL          

 OPENING Test01.bas
 FILE TYPE:BAS6   UNIT   13   STATUS:OLD    
 FORMAT:FORMATTED              ACCESS:SEQUENTIAL          

 OPENING Test01.lpf
 FILE TYPE:LPF   UNIT   15   STATUS:OLD    
 FORMAT:FORMATTED              ACCESS:SEQUENTIAL          

 OPENING Test01.pcg
 FILE TYPE:PCG   UNIT   27   STATUS:OLD    
 FORMAT:FORMATTED              ACCESS:SEQUENTIAL          

 OPENING Test01.ghb
 FILE TYPE:GHB   UNIT   23   STATUS:OLD    
 FORMAT:FORMATTED              ACCESS:SEQUENTIAL          

 OPENING Test01.wel
 FILE TYPE:WEL   UNIT   20   STATUS:OLD    
 FORMAT:FORMATTED              ACCESS:SEQUENTIAL          

 OPENING Test01.oc
 FILE TYPE:OC   UNIT   14   STATUS:OLD    
 FORMAT:FORMATTED              ACCESS:SEQUENTIAL          

 OPENING Test01.cbc
 FILE TYPE:DATA(BINARY)   UNIT   53   STATUS:REPLACE
 FORMAT:BINARY                 ACCESS:SEQUENTIAL          

 OPENING Test01.hds
 FILE TYPE:DATA(BINARY)   UNIT   51   STATUS:REPLACE
 FORMAT:BINARY                 ACCESS:SEQUENTIAL          

 OPENING Test01.ddn
 FILE TYPE:DATA(BINARY)   UNIT   52   STATUS:REPLACE
 FORMAT:BINARY                 ACCESS:SEQUENTIAL          

 BAS -- BASIC PACKAGE, VERSION 7, 5/2/2005 INPUT READ FROM UNIT   13
 
 MODFLOW was compiled using mixed precision
 Precision of REAL variables:           6
 Precision of DOUBLE PRECISION variables:          15

 DISCRETIZATION INPUT DATA READ FROM UNIT   11
 # DIS package for  MODFLOW-2005, generated by Flopy.
    4 LAYERS        10 ROWS        10 COLUMNS
    3 STRESS PERIOD(S) IN SIMULATION
 MODEL TIME UNIT IS DAYS
 MODEL LENGTH UNIT IS METERS
  Confining bed flag for each layer:
   0   0   0   0

                     DELR =   100.000    

                     DELC =   100.000    

 TOP ELEVATION OF LAYER 1 =   10.0000    

   MODEL LAYER BOTTOM EL. =  -5.00000     FOR LAYER   1

   MODEL LAYER BOTTOM EL. =  -20.0000     FOR LAYER   2

   MODEL LAYER BOTTOM EL. =  -35.0000     FOR LAYER   3

   MODEL LAYER BOTTOM EL. =  -50.0000     FOR LAYER   4


 STRESS PERIOD     LENGTH       TIME STEPS     MULTIPLIER FOR DELT    SS FLAG
 ----------------------------------------------------------------------------
        1         1.000000          1                    1.000         SS
        2         100.0000        100                    1.000         TR
        3         100.0000        100                    1.000         TR

 COMBINED STEADY-STATE AND TRANSIENT SIMULATION



 
 # BAS6 package for  MODFLOW-2005, generated by Flopy.                           
 THE FREE FORMAT OPTION HAS BEEN SELECTED



                     BOUNDARY ARRAY FOR LAYER   1
 READING ON UNIT   13 WITH FORMAT: (10I10)             



                     BOUNDARY ARRAY FOR LAYER   2
 READING ON UNIT   13 WITH FORMAT: (10I10)             



                     BOUNDARY ARRAY FOR LAYER   3
 READING ON UNIT   13 WITH FORMAT: (10I10)             



                     BOUNDARY ARRAY FOR LAYER   4
 READING ON UNIT   13 WITH FORMAT: (10I10)             

 AQUIFER HEAD WILL BE SET TO  -999.99     AT ALL NO-FLOW NODES (IBOUND=0).



                       INITIAL HEAD FOR LAYER   1
 READING ON UNIT   13 WITH FORMAT: (10E15.6)           



                       INITIAL HEAD FOR LAYER   2
 READING ON UNIT   13 WITH FORMAT: (10E15.6)           



                       INITIAL HEAD FOR LAYER   3
 READING ON UNIT   13 WITH FORMAT: (10E15.6)           



                       INITIAL HEAD FOR LAYER   4
 READING ON UNIT   13 WITH FORMAT: (10E15.6)           
 # OC package for  MODFLOW-2005, generated by Flopy.

 OUTPUT CONTROL IS SPECIFIED ONLY AT TIME STEPS FOR WHICH OUTPUT IS DESIRED
 COMPACT CELL-BY-CELL BUDGET FILES WILL BE WRITTEN
 AUXILIARY DATA WILL BE SAVED IN CELL-BY-CELL BUDGET FILES
 HEAD PRINT FORMAT CODE IS   0    DRAWDOWN PRINT FORMAT CODE IS   0
 HEADS WILL BE SAVED ON UNIT   51    DRAWDOWNS WILL BE SAVED ON UNIT   52

 LPF -- LAYER-PROPERTY FLOW PACKAGE, VERSION 7, 5/2/2005
         INPUT READ FROM UNIT   15
 # LPF package for  MODFLOW-2005, generated by Flopy.
 CELL-BY-CELL FLOWS WILL BE SAVED ON UNIT   53
 HEAD AT CELLS THAT CONVERT TO DRY= -1.00000E+30
 No named parameters

   LAYER FLAGS:
 LAYER       LAYTYP        LAYAVG         CHANI        LAYVKA        LAYWET
 ---------------------------------------------------------------------------
    1             0             0     1.000E+00             0             0
    2             0             0     1.000E+00             0             0
    3             0             0     1.000E+00             0             0
    4             0             0     1.000E+00             0             0

   INTERPRETATION OF LAYER FLAGS:
                        INTERBLOCK     HORIZONTAL    DATA IN
         LAYER TYPE   TRANSMISSIVITY   ANISOTROPY   ARRAY VKA   WETTABILITY
 LAYER      (LAYTYP)      (LAYAVG)       (CHANI)      (LAYVKA)      (LAYWET)
 ---------------------------------------------------------------------------
    1      CONFINED      HARMONIC     1.000E+00    VERTICAL K  NON-WETTABLE
    2      CONFINED      HARMONIC     1.000E+00    VERTICAL K  NON-WETTABLE
    3      CONFINED      HARMONIC     1.000E+00    VERTICAL K  NON-WETTABLE
    4      CONFINED      HARMONIC     1.000E+00    VERTICAL K  NON-WETTABLE

 WETTING CAPABILITY IS NOT ACTIVE IN ANY LAYER

    HYD. COND. ALONG ROWS =   1.00000     FOR LAYER   1

      VERTICAL HYD. COND. =   1.00000     FOR LAYER   1

         SPECIFIC STORAGE =  1.000000E-04 FOR LAYER   1

    HYD. COND. ALONG ROWS =   1.00000     FOR LAYER   2

      VERTICAL HYD. COND. =   1.00000     FOR LAYER   2

         SPECIFIC STORAGE =  1.000000E-04 FOR LAYER   2

    HYD. COND. ALONG ROWS =   1.00000     FOR LAYER   3

      VERTICAL HYD. COND. =   1.00000     FOR LAYER   3

         SPECIFIC STORAGE =  1.000000E-04 FOR LAYER   3

    HYD. COND. ALONG ROWS =   1.00000     FOR LAYER   4

      VERTICAL HYD. COND. =   1.00000     FOR LAYER   4

         SPECIFIC STORAGE =  1.000000E-04 FOR LAYER   4

 WEL -- WELL PACKAGE, VERSION 7, 5/2/2005 INPUT READ FROM UNIT   20
 # WEL package for  MODFLOW-2005, generated by Flopy.
 No named parameters
 MAXIMUM OF      1 ACTIVE WELLS AT ONE TIME


     0 Well parameters

 GHB -- GENERAL-HEAD BOUNDARY PACKAGE, VERSION 7, 5/2/2005
         INPUT READ FROM UNIT   23
 # GHB package for  MODFLOW-2005, generated by Flopy.
 No named parameters
 MAXIMUM OF     80 ACTIVE GHB CELLS AT ONE TIME


     0 GHB parameters

 PCG -- CONJUGATE-GRADIENT SOLUTION PACKAGE, VERSION 7, 5/2/2005
 # PCG package for  MODFLOW-2005, generated by Flopy.
 MAXIMUM OF     50 CALLS OF SOLUTION ROUTINE
 MAXIMUM OF     30 INTERNAL ITERATIONS PER CALL TO SOLUTION ROUTINE
 MATRIX PRECONDITIONING TYPE :    1



                                    SOLUTION BY THE CONJUGATE-GRADIENT METHOD
                                   -------------------------------------------
                    MAXIMUM NUMBER OF CALLS TO PCG ROUTINE =       50
                        MAXIMUM ITERATIONS PER CALL TO PCG =       30
                               MATRIX PRECONDITIONING TYPE =        1
        RELAXATION FACTOR (ONLY USED WITH PRECOND. TYPE 1) =    0.10000E+01
 PARAMETER OF POLYNOMIAL PRECOND. = 2 (2) OR IS CALCULATED :        0
                         HEAD CHANGE CRITERION FOR CLOSURE =    0.10000E-04
                     RESIDUAL CHANGE CRITERION FOR CLOSURE =    0.10000E-04
            PCG HEAD AND RESIDUAL CHANGE PRINTOUT INTERVAL =      999
     PRINTING FROM SOLVER IS LIMITED(1) OR SUPPRESSED (>1) =        3
                            STEADY-STATE DAMPING PARAMETER =    0.10000E+01
                               TRANSIENT DAMPING PARAMETER =    0.10000E+01
1
                            STRESS PERIOD NO.    1, LENGTH =   1.000000    
                            -----------------------------------------------

                              NUMBER OF TIME STEPS =     1

                               MULTIPLIER FOR DELT =     1.000

                            INITIAL TIME STEP SIZE =   1.000000    

 WELL NO.  LAYER   ROW   COL   STRESS RATE         
 --------------------------------------------------
      1      1      5      5       0.000    

      1 WELL 

 BOUND. NO. LAYER   ROW   COL     STAGE      CONDUCTANCE         
 ----------------------------------------------------------------
      1      1      1      1       10.00           6000.    
      2      1      1     10       0.000           5000.    
      3      1      2      1       10.00           6000.    
      4      1      2     10       0.000           5000.    
      5      1      3      1       10.00           6000.    
      6      1      3     10       0.000           5000.    
      7      1      4      1       10.00           6000.    
      8      1      4     10       0.000           5000.    
      9      1      5      1       10.00           6000.    
     10      1      5     10       0.000           5000.    
     11      1      6      1       10.00           6000.    
     12      1      6     10       0.000           5000.    
     13      1      7      1       10.00           6000.    
     14      1      7     10       0.000           5000.    
     15      1      8      1       10.00           6000.    
     16      1      8     10       0.000           5000.    
     17      1      9      1       10.00           6000.    
     18      1      9     10       0.000           5000.    
     19      1     10      1       10.00           6000.    
     20      1     10     10       0.000           5000.    
     21      2      1      1       10.00           6000.    
     22      2      1     10       0.000           5000.    
     23      2      2      1       10.00           6000.    
     24      2      2     10       0.000           5000.    
     25      2      3      1       10.00           6000.    
     26      2      3     10       0.000           5000.    
     27      2      4      1       10.00           6000.    
     28      2      4     10       0.000           5000.    
     29      2      5      1       10.00           6000.    
     30      2      5     10       0.000           5000.    
     31      2      6      1       10.00           6000.    
     32      2      6     10       0.000           5000.    
     33      2      7      1       10.00           6000.    
     34      2      7     10       0.000           5000.    
     35      2      8      1       10.00           6000.    
     36      2      8     10       0.000           5000.    
     37      2      9      1       10.00           6000.    
     38      2      9     10       0.000           5000.    
     39      2     10      1       10.00           6000.    
     40      2     10     10       0.000           5000.    
     41      3      1      1       10.00           6000.    
     42      3      1     10       0.000           5000.    
     43      3      2      1       10.00           6000.    
     44      3      2     10       0.000           5000.    
     45      3      3      1       10.00           6000.    
     46      3      3     10       0.000           5000.    
     47      3      4      1       10.00           6000.    
     48      3      4     10       0.000           5000.    
     49      3      5      1       10.00           6000.    
     50      3      5     10       0.000           5000.    
     51      3      6      1       10.00           6000.    
     52      3      6     10       0.000           5000.    
     53      3      7      1       10.00           6000.    
     54      3      7     10       0.000           5000.    
     55      3      8      1       10.00           6000.    
     56      3      8     10       0.000           5000.    
     57      3      9      1       10.00           6000.    
     58      3      9     10       0.000           5000.    
     59      3     10      1       10.00           6000.    
     60      3     10     10       0.000           5000.    
     61      4      1      1       10.00           6000.    
     62      4      1     10       0.000           5000.    
     63      4      2      1       10.00           6000.    
     64      4      2     10       0.000           5000.    
     65      4      3      1       10.00           6000.    
     66      4      3     10       0.000           5000.    
     67      4      4      1       10.00           6000.    
     68      4      4     10       0.000           5000.    
     69      4      5      1       10.00           6000.    
     70      4      5     10       0.000           5000.    
     71      4      6      1       10.00           6000.    
     72      4      6     10       0.000           5000.    
     73      4      7      1       10.00           6000.    
     74      4      7     10       0.000           5000.    
     75      4      8      1       10.00           6000.    
     76      4      8     10       0.000           5000.    
     77      4      9      1       10.00           6000.    
     78      4      9     10       0.000           5000.    
     79      4     10      1       10.00           6000.    
     80      4     10     10       0.000           5000.    

     80 GHB CELLS
 
 SOLVING FOR HEAD 

 OUTPUT CONTROL FOR STRESS PERIOD    1   TIME STEP    1
    SAVE HEAD FOR ALL LAYERS
    SAVE DRAWDOWN FOR ALL LAYERS
    SAVE BUDGET
    PRINT HEAD FOR ALL LAYERS
    PRINT BUDGET
 UBDSV2 SAVING "   CONSTANT HEAD" ON UNIT  53 AT TIME STEP  1, STRESS PERIOD   1
 UBDSV1 SAVING "FLOW RIGHT FACE " ON UNIT  53 AT TIME STEP  1, STRESS PERIOD   1
 UBDSV1 SAVING "FLOW FRONT FACE " ON UNIT  53 AT TIME STEP  1, STRESS PERIOD   1
 UBDSV1 SAVING "FLOW LOWER FACE " ON UNIT  53 AT TIME STEP  1, STRESS PERIOD   1
1
              HEAD IN LAYER   1 AT END OF TIME STEP   1 IN STRESS PERIOD    1
  ---------------------------------------------------------------------------

            1           2           3           4           5           6           7           8           9          10
 ........................................................................................................................
   1    9.997       8.887       7.776       6.666       5.555       4.445       3.335       2.224       1.114      3.3313E-03
   2    9.997       8.887       7.776       6.666       5.555       4.445       3.335       2.224       1.114      3.3313E-03
   3    9.997       8.887       7.776       6.666       5.555       4.445       3.335       2.224       1.114      3.3313E-03
   4    9.997       8.887       7.776       6.666       5.555       4.445       3.335       2.224       1.114      3.3313E-03
   5    9.997       8.887       7.776       6.666       5.555       4.445       3.335       2.224       1.114      3.3313E-03
   6    9.997       8.887       7.776       6.666       5.555       4.445       3.335       2.224       1.114      3.3313E-03
   7    9.997       8.887       7.776       6.666       5.555       4.445       3.335       2.224       1.114      3.3313E-03
   8    9.997       8.887       7.776       6.666       5.555       4.445       3.335       2.224       1.114      3.3313E-03
   9    9.997       8.887       7.776       6.666       5.555       4.445       3.335       2.224       1.114      3.3313E-03
  10    9.997       8.887       7.776       6.666       5.555       4.445       3.335       2.224       1.114      3.3313E-03
1
              HEAD IN LAYER   2 AT END OF TIME STEP   1 IN STRESS PERIOD    1
  ---------------------------------------------------------------------------

            1           2           3           4           5           6           7           8           9          10
 ........................................................................................................................
   1    9.997       8.887       7.776       6.666       5.555       4.445       3.335       2.224       1.114      3.3313E-03
   2    9.997       8.887       7.776       6.666       5.555       4.445       3.335       2.224       1.114      3.3313E-03
   3    9.997       8.887       7.776       6.666       5.555       4.445       3.335       2.224       1.114      3.3313E-03
   4    9.997       8.887       7.776       6.666       5.555       4.445       3.335       2.224       1.114      3.3313E-03
   5    9.997       8.887       7.776       6.666       5.555       4.445       3.335       2.224       1.114      3.3313E-03
   6    9.997       8.887       7.776       6.666       5.555       4.445       3.335       2.224       1.114      3.3313E-03
   7    9.997       8.887       7.776       6.666       5.555       4.445       3.335       2.224       1.114      3.3313E-03
   8    9.997       8.887       7.776       6.666       5.555       4.445       3.335       2.224       1.114      3.3313E-03
   9    9.997       8.887       7.776       6.666       5.555       4.445       3.335       2.224       1.114      3.3313E-03
  10    9.997       8.887       7.776       6.666       5.555       4.445       3.335       2.224       1.114      3.3313E-03
1
              HEAD IN LAYER   3 AT END OF TIME STEP   1 IN STRESS PERIOD    1
  ---------------------------------------------------------------------------

            1           2           3           4           5           6           7           8           9          10
 ........................................................................................................................
   1    9.997       8.887       7.776       6.666       5.555       4.445       3.335       2.224       1.114      3.3313E-03
   2    9.997       8.887       7.776       6.666       5.555       4.445       3.335       2.224       1.114      3.3313E-03
   3    9.997       8.887       7.776       6.666       5.555       4.445       3.335       2.224       1.114      3.3313E-03
   4    9.997       8.887       7.776       6.666       5.555       4.445       3.335       2.224       1.114      3.3313E-03
   5    9.997       8.887       7.776       6.666       5.555       4.445       3.335       2.224       1.114      3.3313E-03
   6    9.997       8.887       7.776       6.666       5.555       4.445       3.335       2.224       1.114      3.3313E-03
   7    9.997       8.887       7.776       6.666       5.555       4.445       3.335       2.224       1.114      3.3313E-03
   8    9.997       8.887       7.776       6.666       5.555       4.445       3.335       2.224       1.114      3.3313E-03
   9    9.997       8.887       7.776       6.666       5.555       4.445       3.335       2.224       1.114      3.3313E-03
  10    9.997       8.887       7.776       6.666       5.555       4.445       3.335       2.224       1.114      3.3313E-03
1
              HEAD IN LAYER   4 AT END OF TIME STEP   1 IN STRESS PERIOD    1
  ---------------------------------------------------------------------------

            1           2           3           4           5           6           7           8           9          10
 ........................................................................................................................
   1    9.997       8.887       7.776       6.666       5.555       4.445       3.335       2.224       1.114      3.3313E-03
   2    9.997       8.887       7.776       6.666       5.555       4.445       3.335       2.224       1.114      3.3313E-03
   3    9.997       8.887       7.776       6.666       5.555       4.445       3.335       2.224       1.114      3.3313E-03
   4    9.997       8.887       7.776       6.666       5.555       4.445       3.335       2.224       1.114      3.3313E-03
   5    9.997       8.887       7.776       6.666       5.555       4.445       3.335       2.224       1.114      3.3313E-03
   6    9.997       8.887       7.776       6.666       5.555       4.445       3.335       2.224       1.114      3.3313E-03
   7    9.997       8.887       7.776       6.666       5.555       4.445       3.335       2.224       1.114      3.3313E-03
   8    9.997       8.887       7.776       6.666       5.555       4.445       3.335       2.224       1.114      3.3313E-03
   9    9.997       8.887       7.776       6.666       5.555       4.445       3.335       2.224       1.114      3.3313E-03
  10    9.997       8.887       7.776       6.666       5.555       4.445       3.335       2.224       1.114      3.3313E-03

 HEAD WILL BE SAVED ON UNIT   51 AT END OF TIME STEP    1, STRESS PERIOD    1

 DRAWDOWN WILL BE SAVED ON UNIT   52 AT END OF TIME STEP    1, STRESS PERIOD    1
1
  VOLUMETRIC BUDGET FOR ENTIRE MODEL AT END OF TIME STEP    1, STRESS PERIOD   1
  ------------------------------------------------------------------------------

     CUMULATIVE VOLUMES      L**3       RATES FOR THIS TIME STEP      L**3/T
     ------------------                 ------------------------

           IN:                                      IN:
           ---                                      ---
             STORAGE =           0.0000               STORAGE =           0.0000
       CONSTANT HEAD =           0.0000         CONSTANT HEAD =           0.0000
               WELLS =           0.0000                 WELLS =           0.0000
     HEAD DEP BOUNDS =         666.2595       HEAD DEP BOUNDS =         666.2595

            TOTAL IN =         666.2595              TOTAL IN =         666.2595

          OUT:                                     OUT:
          ----                                     ----
             STORAGE =           0.0000               STORAGE =           0.0000
       CONSTANT HEAD =           0.0000         CONSTANT HEAD =           0.0000
               WELLS =           0.0000                 WELLS =           0.0000
     HEAD DEP BOUNDS =         666.2595       HEAD DEP BOUNDS =         666.2595

           TOTAL OUT =         666.2595             TOTAL OUT =         666.2595

            IN - OUT =           0.0000              IN - OUT =           0.0000

 PERCENT DISCREPANCY =           0.00     PERCENT DISCREPANCY =           0.00






         TIME SUMMARY AT END OF TIME STEP    1 IN STRESS PERIOD    1
                    SECONDS     MINUTES      HOURS       DAYS        YEARS
                    -----------------------------------------------------------
   TIME STEP LENGTH  86400.      1440.0      24.000      1.0000     2.73785E-03
 STRESS PERIOD TIME  86400.      1440.0      24.000      1.0000     2.73785E-03
         TOTAL TIME  86400.      1440.0      24.000      1.0000     2.73785E-03
1
1
                            STRESS PERIOD NO.    2, LENGTH =   100.0000    
                            -----------------------------------------------

                              NUMBER OF TIME STEPS =   100

                               MULTIPLIER FOR DELT =     1.000

                            INITIAL TIME STEP SIZE =   1.000000    

 WELL NO.  LAYER   ROW   COL   STRESS RATE         
 --------------------------------------------------
      1      1      5      5       0.000    

      1 WELL 

 BOUND. NO. LAYER   ROW   COL     STAGE      CONDUCTANCE         
 ----------------------------------------------------------------
      1      1      1      1       10.00           6000.    
      2      1      1     10       0.000           5000.    
      3      1      2      1       10.00           6000.    
      4      1      2     10       0.000           5000.    
      5      1      3      1       10.00           6000.    
      6      1      3     10       0.000           5000.    
      7      1      4      1       10.00           6000.    
      8      1      4     10       0.000           5000.    
      9      1      5      1       10.00           6000.    
     10      1      5     10       0.000           5000.    
     11      1      6      1       10.00           6000.    
     12      1      6     10       0.000           5000.    
     13      1      7      1       10.00           6000.    
     14      1      7     10       0.000           5000.    
     15      1      8      1       10.00           6000.    
     16      1      8     10       0.000           5000.    
     17      1      9      1       10.00           6000.    
     18      1      9     10       0.000           5000.    
     19      1     10      1       10.00           6000.    
     20      1     10     10       0.000           5000.    
     21      2      1      1       10.00           6000.    
     22      2      1     10       0.000           5000.    
     23      2      2      1       10.00           6000.    
     24      2      2     10       0.000           5000.    
     25      2      3      1       10.00           6000.    
     26      2      3     10       0.000           5000.    
     27      2      4      1       10.00           6000.    
     28      2      4     10       0.000           5000.    
     29      2      5      1       10.00           6000.    
     30      2      5     10       0.000           5000.    
     31      2      6      1       10.00           6000.    
     32      2      6     10       0.000           5000.    
     33      2      7      1       10.00           6000.    
     34      2      7     10       0.000           5000.    
     35      2      8      1       10.00           6000.    
     36      2      8     10       0.000           5000.    
     37      2      9      1       10.00           6000.    
     38      2      9     10       0.000           5000.    
     39      2     10      1       10.00           6000.    
     40      2     10     10       0.000           5000.    
     41      3      1      1       10.00           6000.    
     42      3      1     10       0.000           5000.    
     43      3      2      1       10.00           6000.    
     44      3      2     10       0.000           5000.    
     45      3      3      1       10.00           6000.    
     46      3      3     10       0.000           5000.    
     47      3      4      1       10.00           6000.    
     48      3      4     10       0.000           5000.    
     49      3      5      1       10.00           6000.    
     50      3      5     10       0.000           5000.    
     51      3      6      1       10.00           6000.    
     52      3      6     10       0.000           5000.    
     53      3      7      1       10.00           6000.    
     54      3      7     10       0.000           5000.    
     55      3      8      1       10.00           6000.    
     56      3      8     10       0.000           5000.    
     57      3      9      1       10.00           6000.    
     58      3      9     10       0.000           5000.    
     59      3     10      1       10.00           6000.    
     60      3     10     10       0.000           5000.    
     61      4      1      1       10.00           6000.    
     62      4      1     10       0.000           5000.    
     63      4      2      1       10.00           6000.    
     64      4      2     10       0.000           5000.    
     65      4      3      1       10.00           6000.    
     66      4      3     10       0.000           5000.    
     67      4      4      1       10.00           6000.    
     68      4      4     10       0.000           5000.    
     69      4      5      1       10.00           6000.    
     70      4      5     10       0.000           5000.    
     71      4      6      1       10.00           6000.    
     72      4      6     10       0.000           5000.    
     73      4      7      1       10.00           6000.    
     74      4      7     10       0.000           5000.    
     75      4      8      1       10.00           6000.    
     76      4      8     10       0.000           5000.    
     77      4      9      1       10.00           6000.    
     78      4      9     10       0.000           5000.    
     79      4     10      1       10.00           6000.    
     80      4     10     10       0.000           5000.    

     80 GHB CELLS
 
 SOLVING FOR HEAD 

 OUTPUT CONTROL FOR STRESS PERIOD    2   TIME STEP    1
    SAVE HEAD FOR ALL LAYERS
    SAVE DRAWDOWN FOR ALL LAYERS
    SAVE BUDGET
    PRINT HEAD FOR ALL LAYERS
    PRINT BUDGET
 UBDSV1 SAVING "         STORAGE" ON UNIT  53 AT TIME STEP  1, STRESS PERIOD   2
 UBDSV2 SAVING "   CONSTANT HEAD" ON UNIT  53 AT TIME STEP  1, STRESS PERIOD   2
 UBDSV1 SAVING "FLOW RIGHT FACE " ON UNIT  53 AT TIME STEP  1, STRESS PERIOD   2
 UBDSV1 SAVING "FLOW FRONT FACE " ON UNIT  53 AT TIME STEP  1, STRESS PERIOD   2
 UBDSV1 SAVING "FLOW LOWER FACE " ON UNIT  53 AT TIME STEP  1, STRESS PERIOD   2
1
              HEAD IN LAYER   1 AT END OF TIME STEP   1 IN STRESS PERIOD    2
  ---------------------------------------------------------------------------

            1           2           3           4           5           6           7           8           9          10
 ........................................................................................................................
   1    9.997       8.887       7.776       6.666       5.555       4.445       3.335       2.224       1.114      3.3313E-03
   2    9.997       8.887       7.776       6.666       5.555       4.445       3.335       2.224       1.114      3.3313E-03
   3    9.997       8.887       7.776       6.666       5.555       4.445       3.335       2.224       1.114      3.3313E-03
   4    9.997       8.887       7.776       6.666       5.555       4.445       3.335       2.224       1.114      3.3313E-03
   5    9.997       8.887       7.776       6.666       5.555       4.445       3.335       2.224       1.114      3.3313E-03
   6    9.997       8.887       7.776       6.666       5.555       4.445       3.335       2.224       1.114      3.3313E-03
   7    9.997       8.887       7.776       6.666       5.555       4.445       3.335       2.224       1.114      3.3313E-03
   8    9.997       8.887       7.776       6.666       5.555       4.445       3.335       2.224       1.114      3.3313E-03
   9    9.997       8.887       7.776       6.666       5.555       4.445       3.335       2.224       1.114      3.3313E-03
  10    9.997       8.887       7.776       6.666       5.555       4.445       3.335       2.224       1.114      3.3313E-03
1
              HEAD IN LAYER   2 AT END OF TIME STEP   1 IN STRESS PERIOD    2
  ---------------------------------------------------------------------------

            1           2           3           4           5           6           7           8           9          10
 ........................................................................................................................
   1    9.997       8.887       7.776       6.666       5.555       4.445       3.335       2.224       1.114      3.3313E-03
   2    9.997       8.887       7.776       6.666       5.555       4.445       3.335       2.224       1.114      3.3313E-03
   3    9.997       8.887       7.776       6.666       5.555       4.445       3.335       2.224       1.114      3.3313E-03
   4    9.997       8.887       7.776       6.666       5.555       4.445       3.335       2.224       1.114      3.3313E-03
   5    9.997       8.887       7.776       6.666       5.555       4.445       3.335       2.224       1.114      3.3313E-03
   6    9.997       8.887       7.776       6.666       5.555       4.445       3.335       2.224       1.114      3.3313E-03
   7    9.997       8.887       7.776       6.666       5.555       4.445       3.335       2.224       1.114      3.3313E-03
   8    9.997       8.887       7.776       6.666       5.555       4.445       3.335       2.224       1.114      3.3313E-03
   9    9.997       8.887       7.776       6.666       5.555       4.445       3.335       2.224       1.114      3.3313E-03
  10    9.997       8.887       7.776       6.666       5.555       4.445       3.335       2.224       1.114      3.3313E-03
1
              HEAD IN LAYER   3 AT END OF TIME STEP   1 IN STRESS PERIOD    2
  ---------------------------------------------------------------------------

            1           2           3           4           5           6           7           8           9          10
 ........................................................................................................................
   1    9.997       8.887       7.776       6.666       5.555       4.445       3.335       2.224       1.114      3.3313E-03
   2    9.997       8.887       7.776       6.666       5.555       4.445       3.335       2.224       1.114      3.3313E-03
   3    9.997       8.887       7.776       6.666       5.555       4.445       3.335       2.224       1.114      3.3313E-03
   4    9.997       8.887       7.776       6.666       5.555       4.445       3.335       2.224       1.114      3.3313E-03
   5    9.997       8.887       7.776       6.666       5.555       4.445       3.335       2.224       1.114      3.3313E-03
   6    9.997       8.887       7.776       6.666       5.555       4.445       3.335       2.224       1.114      3.3313E-03
   7    9.997       8.887       7.776       6.666       5.555       4.445       3.335       2.224       1.114      3.3313E-03
   8    9.997       8.887       7.776       6.666       5.555       4.445       3.335       2.224       1.114      3.3313E-03
   9    9.997       8.887       7.776       6.666       5.555       4.445       3.335       2.224       1.114      3.3313E-03
  10    9.997       8.887       7.776       6.666       5.555       4.445       3.335       2.224       1.114      3.3313E-03
1
              HEAD IN LAYER   4 AT END OF TIME STEP   1 IN STRESS PERIOD    2
  ---------------------------------------------------------------------------

            1           2           3           4           5           6           7           8           9          10
 ........................................................................................................................
   1    9.997       8.887       7.776       6.666       5.555       4.445       3.335       2.224       1.114      3.3313E-03
   2    9.997       8.887       7.776       6.666       5.555       4.445       3.335       2.224       1.114      3.3313E-03
   3    9.997       8.887       7.776       6.666       5.555       4.445       3.335       2.224       1.114      3.3313E-03
   4    9.997       8.887       7.776       6.666       5.555       4.445       3.335       2.224       1.114      3.3313E-03
   5    9.997       8.887       7.776       6.666       5.555       4.445       3.335       2.224       1.114      3.3313E-03
   6    9.997       8.887       7.776       6.666       5.555       4.445       3.335       2.224       1.114      3.3313E-03
   7    9.997       8.887       7.776       6.666       5.555       4.445       3.335       2.224       1.114      3.3313E-03
   8    9.997       8.887       7.776       6.666       5.555       4.445       3.335       2.224       1.114      3.3313E-03
   9    9.997       8.887       7.776       6.666       5.555       4.445       3.335       2.224       1.114      3.3313E-03
  10    9.997       8.887       7.776       6.666       5.555       4.445       3.335       2.224       1.114      3.3313E-03

 HEAD WILL BE SAVED ON UNIT   51 AT END OF TIME STEP    1, STRESS PERIOD    2

 DRAWDOWN WILL BE SAVED ON UNIT   52 AT END OF TIME STEP    1, STRESS PERIOD    2
1
  VOLUMETRIC BUDGET FOR ENTIRE MODEL AT END OF TIME STEP    1, STRESS PERIOD   2
  ------------------------------------------------------------------------------

     CUMULATIVE VOLUMES      L**3       RATES FOR THIS TIME STEP      L**3/T
     ------------------                 ------------------------

           IN:                                      IN:
           ---                                      ---
             STORAGE =       1.0477E-08               STORAGE =       1.0477E-08
       CONSTANT HEAD =           0.0000         CONSTANT HEAD =           0.0000
               WELLS =           0.0000                 WELLS =           0.0000
     HEAD DEP BOUNDS =        1332.5715       HEAD DEP BOUNDS =         666.3120

            TOTAL IN =        1332.5715              TOTAL IN =         666.3120

          OUT:                                     OUT:
          ----                                     ----
             STORAGE =       5.2387E-08               STORAGE =       5.2387E-08
       CONSTANT HEAD =           0.0000         CONSTANT HEAD =           0.0000
               WELLS =           0.0000                 WELLS =           0.0000
     HEAD DEP BOUNDS =        1332.5190       HEAD DEP BOUNDS =         666.2595

           TOTAL OUT =        1332.5190             TOTAL OUT =         666.2595

            IN - OUT =       5.2490E-02              IN - OUT =       5.2490E-02

 PERCENT DISCREPANCY =           0.00     PERCENT DISCREPANCY =           0.01






         TIME SUMMARY AT END OF TIME STEP    1 IN STRESS PERIOD    2
                    SECONDS     MINUTES      HOURS       DAYS        YEARS
                    -----------------------------------------------------------
   TIME STEP LENGTH  86400.      1440.0      24.000      1.0000     2.73785E-03
 STRESS PERIOD TIME  86400.      1440.0      24.000      1.0000     2.73785E-03
         TOTAL TIME 1.72800E+05  2880.0      48.000      2.0000     5.47570E-03
1
 
 SOLVING FOR HEAD 

 OUTPUT CONTROL FOR STRESS PERIOD    2   TIME STEP    2
    SAVE HEAD FOR ALL LAYERS
    SAVE DRAWDOWN FOR ALL LAYERS
    SAVE BUDGET
    PRINT HEAD FOR ALL LAYERS
    PRINT BUDGET
 UBDSV1 SAVING "         STORAGE" ON UNIT  53 AT TIME STEP  2, STRESS PERIOD   2
 UBDSV2 SAVING "   CONSTANT HEAD" ON UNIT  53 AT TIME STEP  2, STRESS PERIOD   2
 UBDSV1 SAVING "FLOW RIGHT FACE " ON UNIT  53 AT TIME STEP  2, STRESS PERIOD   2
 UBDSV1 SAVING "FLOW FRONT FACE " ON UNIT  53 AT TIME STEP  2, STRESS PERIOD   2
 UBDSV1 SAVING "FLOW LOWER FACE " ON UNIT  53 AT TIME STEP  2, STRESS PERIOD   2
1
              HEAD IN LAYER   1 AT END OF TIME STEP   2 IN STRESS PERIOD    2
  ---------------------------------------------------------------------------

            1           2           3           4           5           6           7           8           9          10
 ........................................................................................................................
   1    9.997       8.887       7.776       6.666       5.555       4.445       3.335       2.224       1.114      3.3313E-03
   2    9.997       8.887       7.776       6.666       5.555       4.445       3.335       2.224       1.114      3.3313E-03
   3    9.997       8.887       7.776       6.666       5.555       4.445       3.335       2.224       1.114      3.3313E-03
   4    9.997       8.887       7.776       6.666       5.555       4.445       3.335       2.224       1.114      3.3313E-03
   5    9.997       8.887       7.776       6.666       5.555       4.445       3.335       2.224       1.114      3.3313E-03
   6    9.997       8.887       7.776       6.666       5.555       4.445       3.335       2.224       1.114      3.3313E-03
   7    9.997       8.887       7.776       6.666       5.555       4.445       3.335       2.224       1.114      3.3313E-03
   8    9.997       8.887       7.776       6.666       5.555       4.445       3.335       2.224       1.114      3.3313E-03
   9    9.997       8.887       7.776       6.666       5.555       4.445       3.335       2.224       1.114      3.3313E-03
  10    9.997       8.887       7.776       6.666       5.555       4.445       3.335       2.224       1.114      3.3313E-03
1
              HEAD IN LAYER   2 AT END OF TIME STEP   2 IN STRESS PERIOD    2
  ---------------------------------------------------------------------------

            1           2           3           4           5           6           7           8           9          10
 ........................................................................................................................
   1    9.997       8.887       7.776       6.666       5.555       4.445       3.335       2.224       1.114      3.3313E-03
   2    9.997       8.887       7.776       6.666       5.555       4.445       3.335       2.224       1.114      3.3313E-03
   3    9.997       8.887       7.776       6.666       5.555       4.445       3.335       2.224       1.114      3.3313E-03
   4    9.997       8.887       7.776       6.666       5.555       4.445       3.335       2.224       1.114      3.3313E-03
   5    9.997       8.887       7.776       6.666       5.555       4.445       3.335       2.224       1.114      3.3313E-03
   6    9.997       8.887       7.776       6.666       5.555       4.445       3.335       2.224       1.114      3.3313E-03
   7    9.997       8.887       7.776       6.666       5.555       4.445       3.335       2.224       1.114      3.3313E-03
   8    9.997       8.887       7.776       6.666       5.555       4.445       3.335       2.224       1.114      3.3313E-03
   9    9.997       8.887       7.776       6.666       5.555       4.445       3.335       2.224       1.114      3.3313E-03
  10    9.997       8.887       7.776       6.666       5.555       4.445       3.335       2.224       1.114      3.3313E-03
1
              HEAD IN LAYER   3 AT END OF TIME STEP   2 IN STRESS PERIOD    2
  ---------------------------------------------------------------------------

            1           2           3           4           5           6           7           8           9          10
 ........................................................................................................................
   1    9.997       8.887       7.776       6.666       5.555       4.445       3.335       2.224       1.114      3.3313E-03
   2    9.997       8.887       7.776       6.666       5.555       4.445       3.335       2.224       1.114      3.3313E-03
   3    9.997       8.887       7.776       6.666       5.555       4.445       3.335       2.224       1.114      3.3313E-03
   4    9.997       8.887       7.776       6.666       5.555       4.445       3.335       2.224       1.114      3.3313E-03
   5    9.997       8.887       7.776       6.666       5.555       4.445       3.335       2.224       1.114      3.3313E-03
   6    9.997       8.887       7.776       6.666       5.555       4.445       3.335       2.224       1.114      3.3313E-03
   7    9.997       8.887       7.776       6.666       5.555       4.445       3.335       2.224       1.114      3.3313E-03
   8    9.997       8.887       7.776       6.666       5.555       4.445       3.335       2.224       1.114      3.3313E-03
   9    9.997       8.887       7.776       6.666       5.555       4.445       3.335       2.224       1.114      3.3313E-03
  10    9.997       8.887       7.776       6.666       5.555       4.445       3.335       2.224       1.114      3.3313E-03
1
              HEAD IN LAYER   4 AT END OF TIME STEP   2 IN STRESS PERIOD    2
  ---------------------------------------------------------------------------

            1           2           3           4           5           6           7           8           9          10
 ........................................................................................................................
   1    9.997       8.887       7.776       6.666       5.555       4.445       3.335       2.224       1.114      3.3313E-03
   2    9.997       8.887       7.776       6.666       5.555       4.445       3.335       2.224       1.114      3.3313E-03
   3    9.997       8.887       7.776       6.666       5.555       4.445       3.335       2.224       1.114      3.3313E-03
   4    9.997       8.887       7.776       6.666       5.555       4.445       3.335       2.224       1.114      3.3313E-03
   5    9.997       8.887       7.776       6.666       5.555       4.445       3.335       2.224       1.114      3.3313E-03
   6    9.997       8.887       7.776       6.666       5.555       4.445       3.335       2.224       1.114      3.3313E-03
   7    9.997       8.887       7.776       6.666       5.555       4.445       3.335       2.224       1.114      3.3313E-03
   8    9.997       8.887       7.776       6.666       5.555       4.445       3.335       2.224       1.114      3.3313E-03
   9    9.997       8.887       7.776       6.666       5.555       4.445       3.335       2.224       1.114      3.3313E-03
  10    9.997       8.887       7.776       6.666       5.555       4.445       3.335       2.224       1.114      3.3313E-03

 HEAD WILL BE SAVED ON UNIT   51 AT END OF TIME STEP    2, STRESS PERIOD    2

 DRAWDOWN WILL BE SAVED ON UNIT   52 AT END OF TIME STEP    2, STRESS PERIOD    2
1
  VOLUMETRIC BUDGET FOR ENTIRE MODEL AT END OF TIME STEP    2, STRESS PERIOD   2
  ------------------------------------------------------------------------------

     CUMULATIVE VOLUMES      L**3       RATES FOR THIS TIME STEP      L**3/T
     ------------------                 ------------------------

           IN:                                      IN:
           ---                                      ---
             STORAGE =       1.0477E-08               STORAGE =           0.0000
       CONSTANT HEAD =           0.0000         CONSTANT HEAD =           0.0000
               WELLS =           0.0000                 WELLS =           0.0000
     HEAD DEP BOUNDS =        1998.8837       HEAD DEP BOUNDS =         666.3121

            TOTAL IN =        1998.8837              TOTAL IN =         666.3121

          OUT:                                     OUT:
          ----                                     ----
             STORAGE =       5.2387E-08               STORAGE =           0.0000
       CONSTANT HEAD =           0.0000         CONSTANT HEAD =           0.0000
               WELLS =           0.0000                 WELLS =           0.0000
     HEAD DEP BOUNDS =        1998.7786       HEAD DEP BOUNDS =         666.2595

           TOTAL OUT =        1998.7786             TOTAL OUT =         666.2595

            IN - OUT =           0.1051              IN - OUT =       5.2612E-02

 PERCENT DISCREPANCY =           0.01     PERCENT DISCREPANCY =           0.01






         TIME SUMMARY AT END OF TIME STEP    2 IN STRESS PERIOD    2
                    SECONDS     MINUTES      HOURS       DAYS        YEARS
                    -----------------------------------------------------------
   TIME STEP LENGTH  86400.      1440.0      24.000      1.0000     2.73785E-03
 STRESS PERIOD TIME 1.72800E+05  2880.0      48.000      2.0000     5.47570E-03
         TOTAL TIME 2.59200E+05  4320.0      72.000      3.0000     8.21355E-03
1
 
 SOLVING FOR HEAD 

 OUTPUT CONTROL FOR STRESS PERIOD    2   TIME STEP    3
    SAVE HEAD FOR ALL LAYERS
    SAVE DRAWDOWN FOR ALL LAYERS
    SAVE BUDGET
    PRINT HEAD FOR ALL LAYERS
    PRINT BUDGET
 UBDSV1 SAVING "         STORAGE" ON UNIT  53 AT TIME STEP  3, STRESS PERIOD   2
 UBDSV2 SAVING "   CONSTANT HEAD" ON UNIT  53 AT TIME STEP  3, STRESS PERIOD   2
 UBDSV1 SAVING "FLOW RIGHT FACE " ON UNIT  53 AT TIME STEP  3, STRESS PERIOD   2
 UBDSV1 SAVING "FLOW FRONT FACE " ON UNIT  53 AT TIME STEP  3, STRESS PERIOD   2
 UBDSV1 SAVING "FLOW LOWER FACE " ON UNIT  53 AT TIME STEP  3, STRESS PERIOD   2
1
              HEAD IN LAYER   1 AT END OF TIME STEP   3 IN STRESS PERIOD    2
  ---------------------------------------------------------------------------

            1           2           3           4           5           6           7           8           9          10
 ........................................................................................................................
   1    9.997       8.887       7.776       6.666       5.555       4.445       3.335       2.224       1.114      3.3313E-03
   2    9.997       8.887       7.776       6.666       5.555       4.445       3.335       2.224       1.114      3.3313E-03
   3    9.997       8.887       7.776       6.666       5.555       4.445       3.335       2.224       1.114      3.3313E-03
   4    9.997       8.887       7.776       6.666       5.555       4.445       3.335       2.224       1.114      3.3313E-03
   5    9.997       8.887       7.776       6.666       5.555       4.445       3.335       2.224       1.114      3.3313E-03
   6    9.997       8.887       7.776       6.666       5.555       4.445       3.335       2.224       1.114      3.3313E-03
   7    9.997       8.887       7.776       6.666       5.555       4.445       3.335       2.224       1.114      3.3313E-03
   8    9.997       8.887       7.776       6.666       5.555       4.445       3.335       2.224       1.114      3.3313E-03
   9    9.997       8.887       7.776       6.666       5.555       4.445       3.335       2.224       1.114      3.3313E-03
  10    9.997       8.887       7.776       6.666       5.555       4.445       3.335       2.224       1.114      3.3313E-03
1
              HEAD IN LAYER   2 AT END OF TIME STEP   3 IN STRESS PERIOD    2
  ---------------------------------------------------------------------------

            1           2           3           4           5           6           7           8           9          10
 ........................................................................................................................
   1    9.997       8.887       7.776       6.666       5.555       4.445       3.335       2.224       1.114      3.3313E-03
   2    9.997       8.887       7.776       6.666       5.555       4.445       3.335       2.224       1.114      3.3313E-03
   3    9.997       8.887       7.776       6.666       5.555       4.445       3.335       2.224       1.114      3.3313E-03
   4    9.997       8.887       7.776       6.666       5.555       4.445       3.335       2.224       1.114      3.3313E-03
   5    9.997       8.887       7.776       6.666       5.555       4.445       3.335       2.224       1.114      3.3313E-03
   6    9.997       8.887       7.776       6.666       5.555       4.445       3.335       2.224       1.114      3.3313E-03
   7    9.997       8.887       7.776       6.666       5.555       4.445       3.335       2.224       1.114      3.3313E-03
   8    9.997       8.887       7.776       6.666       5.555       4.445       3.335       2.224       1.114      3.3313E-03
   9    9.997       8.887       7.776       6.666       5.555       4.445       3.335       2.224       1.114      3.3313E-03
  10    9.997       8.887       7.776       6.666       5.555       4.445       3.335       2.224       1.114      3.3313E-03
1
              HEAD IN LAYER   3 AT END OF TIME STEP   3 IN STRESS PERIOD    2
  ---------------------------------------------------------------------------

            1           2           3           4           5           6           7           8           9          10
 ........................................................................................................................
   1    9.997       8.887       7.776       6.666       5.555       4.445       3.335       2.224       1.114      3.3313E-03
   2    9.997       8.887       7.776       6.666       5.555       4.445       3.335       2.224       1.114      3.3313E-03
   3    9.997       8.887       7.776       6.666       5.555       4.445       3.335       2.224       1.114      3.3313E-03
   4    9.997       8.887       7.776       6.666       5.555       4.445       3.335       2.224       1.114      3.3313E-03
   5    9.997       8.887       7.776       6.666       5.555       4.445       3.335       2.224       1.114      3.3313E-03
   6    9.997       8.887       7.776       6.666       5.555       4.445       3.335       2.224       1.114      3.3313E-03
   7    9.997       8.887       7.776       6.666       5.555       4.445       3.335       2.224       1.114      3.3313E-03
   8    9.997       8.887       7.776       6.666       5.555       4.445       3.335       2.224       1.114      3.3313E-03
   9    9.997       8.887       7.776       6.666       5.555       4.445       3.335       2.224       1.114      3.3313E-03
  10    9.997       8.887       7.776       6.666       5.555       4.445       3.335       2.224       1.114      3.3313E-03
1
              HEAD IN LAYER   4 AT END OF TIME STEP   3 IN STRESS PERIOD    2
  ---------------------------------------------------------------------------

            1           2           3           4           5           6           7           8           9          10
 ........................................................................................................................
   1    9.997       8.887       7.776       6.666       5.555       4.445       3.335       2.224       1.114      3.3313E-03
   2    9.997       8.887       7.776       6.666       5.555       4.445       3.335       2.224       1.114      3.3313E-03
   3    9.997       8.887       7.776       6.666       5.555       4.445       3.335       2.224       1.114      3.3313E-03
   4    9.997       8.887       7.776       6.666       5.555       4.445       3.335       2.224       1.114      3.3313E-03
   5    9.997       8.887       7.776       6.666       5.555       4.445       3.335       2.224       1.114      3.3313E-03
   6    9.997       8.887       7.776       6.666       5.555       4.445       3.335       2.224       1.114      3.3313E-03
   7    9.997       8.887       7.776       6.666       5.555       4.445       3.335       2.224       1.114      3.3313E-03
   8    9.997       8.887       7.776       6.666       5.555       4.445       3.335       2.224       1.114      3.3313E-03
   9    9.997       8.887       7.776       6.666       5.555       4.445       3.335       2.224       1.114      3.3313E-03
  10    9.997       8.887       7.776       6.666       5.555       4.445       3.335       2.224       1.114      3.3313E-03

 HEAD WILL BE SAVED ON UNIT   51 AT END OF TIME STEP    3, STRESS PERIOD    2

 DRAWDOWN WILL BE SAVED ON UNIT   52 AT END OF TIME STEP    3, STRESS PERIOD    2
1
  VOLUMETRIC BUDGET FOR ENTIRE MODEL AT END OF TIME STEP    3, STRESS PERIOD   2
  ------------------------------------------------------------------------------

     CUMULATIVE VOLUMES      L**3       RATES FOR THIS TIME STEP      L**3/T
     ------------------                 ------------------------

           IN:                                      IN:
           ---                                      ---
             STORAGE =       1.0477E-08               STORAGE =           0.0000
       CONSTANT HEAD =           0.0000         CONSTANT HEAD =           0.0000
               WELLS =           0.0000                 WELLS =           0.0000
     HEAD DEP BOUNDS =        2665.1958       HEAD DEP BOUNDS =         666.3123

            TOTAL IN =        2665.1958              TOTAL IN =         666.3123

          OUT:                                     OUT:
          ----                                     ----
             STORAGE =       5.2387E-08               STORAGE =           0.0000
       CONSTANT HEAD =           0.0000         CONSTANT HEAD =           0.0000
               WELLS =           0.0000                 WELLS =           0.0000
     HEAD DEP BOUNDS =        2665.0381       HEAD DEP BOUNDS =         666.2595

           TOTAL OUT =        2665.0381             TOTAL OUT =         666.2595

            IN - OUT =           0.1577              IN - OUT =       5.2734E-02

 PERCENT DISCREPANCY =           0.01     PERCENT DISCREPANCY =           0.01






         TIME SUMMARY AT END OF TIME STEP    3 IN STRESS PERIOD    2
                    SECONDS     MINUTES      HOURS       DAYS        YEARS
                    -----------------------------------------------------------
   TIME STEP LENGTH  86400.      1440.0      24.000      1.0000     2.73785E-03
 STRESS PERIOD TIME 2.59200E+05  4320.0      72.000      3.0000     8.21355E-03
         TOTAL TIME 3.45600E+05  5760.0      96.000      4.0000     1.09514E-02
1
 
 SOLVING FOR HEAD 

 OUTPUT CONTROL FOR STRESS PERIOD    2   TIME STEP    4
    SAVE HEAD FOR ALL LAYERS
    SAVE DRAWDOWN FOR ALL LAYERS
    SAVE BUDGET
    PRINT HEAD FOR ALL LAYERS
    PRINT BUDGET
 UBDSV1 SAVING "         STORAGE" ON UNIT  53 AT TIME STEP  4, STRESS PERIOD   2
 UBDSV2 SAVING "   CONSTANT HEAD" ON UNIT  53 AT TIME STEP  4, STRESS PERIOD   2
 UBDSV1 SAVING "FLOW RIGHT FACE " ON UNIT  53 AT TIME STEP  4, STRESS PERIOD   2
 UBDSV1 SAVING "FLOW FRONT FACE " ON UNIT  53 AT TIME STEP  4, STRESS PERIOD   2
 UBDSV1 SAVING "FLOW LOWER FACE " ON UNIT  53 AT TIME STEP  4, STRESS PERIOD   2
1
              HEAD IN LAYER   1 AT END OF TIME STEP   4 IN STRESS PERIOD    2
  ---------------------------------------------------------------------------

            1           2           3           4           5           6           7           8           9          10
 ........................................................................................................................
   1    9.997       8.887       7.776       6.666       5.555       4.445       3.335       2.224       1.114      3.3313E-03
   2    9.997       8.887       7.776       6.666       5.555       4.445       3.335       2.224       1.114      3.3313E-03
   3    9.997       8.887       7.776       6.666       5.555       4.445       3.335       2.224       1.114      3.3313E-03
   4    9.997       8.887       7.776       6.666       5.555       4.445       3.335       2.224       1.114      3.3313E-03
   5    9.997       8.887       7.776       6.666       5.555       4.445       3.335       2.224       1.114      3.3313E-03
   6    9.997       8.887       7.776       6.666       5.555       4.445       3.335       2.224       1.114      3.3313E-03
   7    9.997       8.887       7.776       6.666       5.555       4.445       3.335       2.224       1.114      3.3313E-03
   8    9.997       8.887       7.776       6.666       5.555       4.445       3.335       2.224       1.114      3.3313E-03
   9    9.997       8.887       7.776       6.666       5.555       4.445       3.335       2.224       1.114      3.3313E-03
  10    9.997       8.887       7.776       6.666       5.555       4.445       3.335       2.224       1.114      3.3313E-03
1
              HEAD IN LAYER   2 AT END OF TIME STEP   4 IN STRESS PERIOD    2
  ---------------------------------------------------------------------------

            1           2           3           4           5           6           7           8           9          10
 ........................................................................................................................
   1    9.997       8.887       7.776       6.666       5.555       4.445       3.335       2.224       1.114      3.3313E-03
   2    9.997       8.887       7.776       6.666       5.555       4.445       3.335       2.224       1.114      3.3313E-03
   3    9.997       8.887       7.776       6.666       5.555       4.445       3.335       2.224       1.114      3.3313E-03
   4    9.997       8.887       7.776       6.666       5.555       4.445       3.335       2.224       1.114      3.3313E-03
   5    9.997       8.887       7.776       6.666       5.555       4.445       3.335       2.224       1.114      3.3313E-03
   6    9.997       8.887       7.776       6.666       5.555       4.445       3.335       2.224       1.114      3.3313E-03
   7    9.997       8.887       7.776       6.666       5.555       4.445       3.335       2.224       1.114      3.3313E-03
   8    9.997       8.887       7.776       6.666       5.555       4.445       3.335       2.224       1.114      3.3313E-03
   9    9.997       8.887       7.776       6.666       5.555       4.445       3.335       2.224       1.114      3.3313E-03
  10    9.997       8.887       7.776       6.666       5.555       4.445       3.335       2.224       1.114      3.3313E-03
1
              HEAD IN LAYER   3 AT END OF TIME STEP   4 IN STRESS PERIOD    2
  ---------------------------------------------------------------------------

            1           2           3           4           5           6           7           8           9          10
 ........................................................................................................................
   1    9.997       8.887       7.776       6.666       5.555       4.445       3.335       2.224       1.114      3.3313E-03
   2    9.997       8.887       7.776       6.666       5.555       4.445       3.335       2.224       1.114      3.3313E-03
   3    9.997       8.887       7.776       6.666       5.555       4.445       3.335       2.224       1.114      3.3313E-03
   4    9.997       8.887       7.776       6.666       5.555       4.445       3.335       2.224       1.114      3.3313E-03
   5    9.997       8.887       7.776       6.666       5.555       4.445       3.335       2.224       1.114      3.3313E-03
   6    9.997       8.887       7.776       6.666       5.555       4.445       3.335       2.224       1.114      3.3313E-03
   7    9.997       8.887       7.776       6.666       5.555       4.445       3.335       2.224       1.114      3.3313E-03
   8    9.997       8.887       7.776       6.666       5.555       4.445       3.335       2.224       1.114      3.3313E-03
   9    9.997       8.887       7.776       6.666       5.555       4.445       3.335       2.224       1.114      3.3313E-03
  10    9.997       8.887       7.776       6.666       5.555       4.445       3.335       2.224       1.114      3.3313E-03
1
              HEAD IN LAYER   4 AT END OF TIME STEP   4 IN STRESS PERIOD    2
  ---------------------------------------------------------------------------

            1           2           3           4           5           6           7           8           9          10
 ........................................................................................................................
   1    9.997       8.887       7.776       6.666       5.555       4.445       3.335       2.224       1.114      3.3313E-03
   2    9.997       8.887       7.776       6.666       5.555       4.445       3.335       2.224       1.114      3.3313E-03
   3    9.997       8.887       7.776       6.666       5.555       4.445       3.335       2.224       1.114      3.3313E-03
   4    9.997       8.887       7.776       6.666       5.555       4.445       3.335       2.224       1.114      3.3313E-03
   5    9.997       8.887       7.776       6.666       5.555       4.445       3.335       2.224       1.114      3.3313E-03
   6    9.997       8.887       7.776       6.666       5.555       4.445       3.335       2.224       1.114      3.3313E-03
   7    9.997       8.887       7.776       6.666       5.555       4.445       3.335       2.224       1.114      3.3313E-03
   8    9.997       8.887       7.776       6.666       5.555       4.445       3.335       2.224       1.114      3.3313E-03
   9    9.997       8.887       7.776       6.666       5.555       4.445       3.335       2.224       1.114      3.3313E-03
  10    9.997       8.887       7.776       6.666       5.555       4.445       3.335       2.224       1.114      3.3313E-03

 HEAD WILL BE SAVED ON UNIT   51 AT END OF TIME STEP    4, STRESS PERIOD    2

 DRAWDOWN WILL BE SAVED ON UNIT   52 AT END OF TIME STEP    4, STRESS PERIOD    2
1
  VOLUMETRIC BUDGET FOR ENTIRE MODEL AT END OF TIME STEP    4, STRESS PERIOD   2
  ------------------------------------------------------------------------------

     CUMULATIVE VOLUMES      L**3       RATES FOR THIS TIME STEP      L**3/T
     ------------------                 ------------------------

           IN:                                      IN:
           ---                                      ---
             STORAGE =       1.0477E-08               STORAGE =           0.0000
       CONSTANT HEAD =           0.0000         CONSTANT HEAD =           0.0000
               WELLS =           0.0000                 WELLS =           0.0000
     HEAD DEP BOUNDS =        3331.5081       HEAD DEP BOUNDS =         666.3123

            TOTAL IN =        3331.5081              TOTAL IN =         666.3123

          OUT:                                     OUT:
          ----                                     ----
             STORAGE =       5.2387E-08               STORAGE =           0.0000
       CONSTANT HEAD =           0.0000         CONSTANT HEAD =           0.0000
               WELLS =           0.0000                 WELLS =           0.0000
     HEAD DEP BOUNDS =        3331.2976       HEAD DEP BOUNDS =         666.2595

           TOTAL OUT =        3331.2976             TOTAL OUT =         666.2595

            IN - OUT =           0.2104              IN - OUT =       5.2795E-02

 PERCENT DISCREPANCY =           0.01     PERCENT DISCREPANCY =           0.01






         TIME SUMMARY AT END OF TIME STEP    4 IN STRESS PERIOD    2
                    SECONDS     MINUTES      HOURS       DAYS        YEARS
                    -----------------------------------------------------------
   TIME STEP LENGTH  86400.      1440.0      24.000      1.0000     2.73785E-03
 STRESS PERIOD TIME 3.45600E+05  5760.0      96.000      4.0000     1.09514E-02
         TOTAL TIME 4.32000E+05  7200.0      120.00      5.0000     1.36893E-02
1
 
 SOLVING FOR HEAD 

 OUTPUT CONTROL FOR STRESS PERIOD    2   TIME STEP    5
    SAVE HEAD FOR ALL LAYERS
    SAVE DRAWDOWN FOR ALL LAYERS
    SAVE BUDGET
    PRINT HEAD FOR ALL LAYERS
    PRINT BUDGET
 UBDSV1 SAVING "         STORAGE" ON UNIT  53 AT TIME STEP  5, STRESS PERIOD   2
 UBDSV2 SAVING "   CONSTANT HEAD" ON UNIT  53 AT TIME STEP  5, STRESS PERIOD   2
 UBDSV1 SAVING "FLOW RIGHT FACE " ON UNIT  53 AT TIME STEP  5, STRESS PERIOD   2
 UBDSV1 SAVING "FLOW FRONT FACE " ON UNIT  53 AT TIME STEP  5, STRESS PERIOD   2
 UBDSV1 SAVING "FLOW LOWER FACE " ON UNIT  53 AT TIME STEP  5, STRESS PERIOD   2
1
              HEAD IN LAYER   1 AT END OF TIME STEP   5 IN STRESS PERIOD    2
  ---------------------------------------------------------------------------

            1           2           3           4           5           6           7           8           9          10
 ........................................................................................................................
   1    9.997       8.887       7.776       6.666       5.555       4.445       3.335       2.224       1.114      3.3313E-03
   2    9.997       8.887       7.776       6.666       5.555       4.445       3.335       2.224       1.114      3.3313E-03
   3    9.997       8.887       7.776       6.666       5.555       4.445       3.335       2.224       1.114      3.3313E-03
   4    9.997       8.887       7.776       6.666       5.555       4.445       3.335       2.224       1.114      3.3313E-03
   5    9.997       8.887       7.776       6.666       5.555       4.445       3.335       2.224       1.114      3.3313E-03
   6    9.997       8.887       7.776       6.666       5.555       4.445       3.335       2.224       1.114      3.3313E-03
   7    9.997       8.887       7.776       6.666       5.555       4.445       3.335       2.224       1.114      3.3313E-03
   8    9.997       8.887       7.776       6.666       5.555       4.445       3.335       2.224       1.114      3.3313E-03
   9    9.997       8.887       7.776       6.666       5.555       4.445       3.335       2.224       1.114      3.3313E-03
  10    9.997       8.887       7.776       6.666       5.555       4.445       3.335       2.224       1.114      3.3313E-03
1
              HEAD IN LAYER   2 AT END OF TIME STEP   5 IN STRESS PERIOD    2
  ---------------------------------------------------------------------------

            1           2           3           4           5           6           7           8           9          10
 ........................................................................................................................
   1    9.997       8.887       7.776       6.666       5.555       4.445       3.335       2.224       1.114      3.3313E-03
   2    9.997       8.887       7.776       6.666       5.555       4.445       3.335       2.224       1.114      3.3313E-03
   3    9.997       8.887       7.776       6.666       5.555       4.445       3.335       2.224       1.114      3.3313E-03
   4    9.997       8.887       7.776       6.666       5.555       4.445       3.335       2.224       1.114      3.3313E-03
   5    9.997       8.887       7.776       6.666       5.555       4.445       3.335       2.224       1.114      3.3313E-03
   6    9.997       8.887       7.776       6.666       5.555       4.445       3.335       2.224       1.114      3.3313E-03
   7    9.997       8.887       7.776       6.666       5.555       4.445       3.335       2.224       1.114      3.3313E-03
   8    9.997       8.887       7.776       6.666       5.555       4.445       3.335       2.224       1.114      3.3313E-03
   9    9.997       8.887       7.776       6.666       5.555       4.445       3.335       2.224       1.114      3.3313E-03
  10    9.997       8.887       7.776       6.666       5.555       4.445       3.335       2.224       1.114      3.3313E-03
1
              HEAD IN LAYER   3 AT END OF TIME STEP   5 IN STRESS PERIOD    2
  ---------------------------------------------------------------------------

            1           2           3           4           5           6           7           8           9          10
 ........................................................................................................................
   1    9.997       8.887       7.776       6.666       5.555       4.445       3.335       2.224       1.114      3.3313E-03
   2    9.997       8.887       7.776       6.666       5.555       4.445       3.335       2.224       1.114      3.3313E-03
   3    9.997       8.887       7.776       6.666       5.555       4.445       3.335       2.224       1.114      3.3313E-03
   4    9.997       8.887       7.776       6.666       5.555       4.445       3.335       2.224       1.114      3.3313E-03
   5    9.997       8.887       7.776       6.666       5.555       4.445       3.335       2.224       1.114      3.3313E-03
   6    9.997       8.887       7.776       6.666       5.555       4.445       3.335       2.224       1.114      3.3313E-03
   7    9.997       8.887       7.776       6.666       5.555       4.445       3.335       2.224       1.114      3.3313E-03
   8    9.997       8.887       7.776       6.666       5.555       4.445       3.335       2.224       1.114      3.3313E-03
   9    9.997       8.887       7.776       6.666       5.555       4.445       3.335       2.224       1.114      3.3313E-03
  10    9.997       8.887       7.776       6.666       5.555       4.445       3.335       2.224       1.114      3.3313E-03
1
              HEAD IN LAYER   4 AT END OF TIME STEP   5 IN STRESS PERIOD    2
  ---------------------------------------------------------------------------

            1           2           3           4           5           6           7           8           9          10
 ........................................................................................................................
   1    9.997       8.887       7.776       6.666       5.555       4.445       3.335       2.224       1.114      3.3313E-03
   2    9.997       8.887       7.776       6.666       5.555       4.445       3.335       2.224       1.114      3.3313E-03
   3    9.997       8.887       7.776       6.666       5.555       4.445       3.335       2.224       1.114      3.3313E-03
   4    9.997       8.887       7.776       6.666       5.555       4.445       3.335       2.224       1.114      3.3313E-03
   5    9.997       8.887       7.776       6.666       5.555       4.445       3.335       2.224       1.114      3.3313E-03
   6    9.997       8.887       7.776       6.666       5.555       4.445       3.335       2.224       1.114      3.3313E-03
   7    9.997       8.887       7.776       6.666       5.555       4.445       3.335       2.224       1.114      3.3313E-03
   8    9.997       8.887       7.776       6.666       5.555       4.445       3.335       2.224       1.114      3.3313E-03
   9    9.997       8.887       7.776       6.666       5.555       4.445       3.335       2.224       1.114      3.3313E-03
  10    9.997       8.887       7.776       6.666       5.555       4.445       3.335       2.224       1.114      3.3313E-03

 HEAD WILL BE SAVED ON UNIT   51 AT END OF TIME STEP    5, STRESS PERIOD    2

 DRAWDOWN WILL BE SAVED ON UNIT   52 AT END OF TIME STEP    5, STRESS PERIOD    2
1
  VOLUMETRIC BUDGET FOR ENTIRE MODEL AT END OF TIME STEP    5, STRESS PERIOD   2
  ------------------------------------------------------------------------------

     CUMULATIVE VOLUMES      L**3       RATES FOR THIS TIME STEP      L**3/T
     ------------------                 ------------------------

           IN:                                      IN:
           ---                                      ---
             STORAGE =       1.0477E-08               STORAGE =           0.0000
       CONSTANT HEAD =           0.0000         CONSTANT HEAD =           0.0000
               WELLS =           0.0000                 WELLS =           0.0000
     HEAD DEP BOUNDS =        3997.8203       HEAD DEP BOUNDS =         666.3123

            TOTAL IN =        3997.8203              TOTAL IN =         666.3123

          OUT:                                     OUT:
          ----                                     ----
             STORAGE =       5.2387E-08               STORAGE =           0.0000
       CONSTANT HEAD =           0.0000         CONSTANT HEAD =           0.0000
               WELLS =           0.0000                 WELLS =           0.0000
     HEAD DEP BOUNDS =        3997.5571       HEAD DEP BOUNDS =         666.2595

           TOTAL OUT =        3997.5571             TOTAL OUT =         666.2595

            IN - OUT =           0.2632              IN - OUT =       5.2795E-02

 PERCENT DISCREPANCY =           0.01     PERCENT DISCREPANCY =           0.01






         TIME SUMMARY AT END OF TIME STEP    5 IN STRESS PERIOD    2
                    SECONDS     MINUTES      HOURS       DAYS        YEARS
                    -----------------------------------------------------------
   TIME STEP LENGTH  86400.      1440.0      24.000      1.0000     2.73785E-03
 STRESS PERIOD TIME 4.32000E+05  7200.0      120.00      5.0000     1.36893E-02
         TOTAL TIME 5.18400E+05  8640.0      144.00      6.0000     1.64271E-02
1
 
 SOLVING FOR HEAD 

 OUTPUT CONTROL FOR STRESS PERIOD    2   TIME STEP    6
    SAVE HEAD FOR ALL LAYERS
    SAVE DRAWDOWN FOR ALL LAYERS
    SAVE BUDGET
    PRINT HEAD FOR ALL LAYERS
    PRINT BUDGET
 UBDSV1 SAVING "         STORAGE" ON UNIT  53 AT TIME STEP  6, STRESS PERIOD   2
 UBDSV2 SAVING "   CONSTANT HEAD" ON UNIT  53 AT TIME STEP  6, STRESS PERIOD   2
 UBDSV1 SAVING "FLOW RIGHT FACE " ON UNIT  53 AT TIME STEP  6, STRESS PERIOD   2
 UBDSV1 SAVING "FLOW FRONT FACE " ON UNIT  53 AT TIME STEP  6, STRESS PERIOD   2
 UBDSV1 SAVING "FLOW LOWER FACE " ON UNIT  53 AT TIME STEP  6, STRESS PERIOD   2
1
              HEAD IN LAYER   1 AT END OF TIME STEP   6 IN STRESS PERIOD    2
  ---------------------------------------------------------------------------

            1           2           3           4           5           6           7           8           9          10
 ........................................................................................................................
   1    9.997       8.887       7.776       6.666       5.555       4.445       3.335       2.224       1.114      3.3313E-03
   2    9.997       8.887       7.776       6.666       5.555       4.445       3.335       2.224       1.114      3.3313E-03
   3    9.997       8.887       7.776       6.666       5.555       4.445       3.335       2.224       1.114      3.3313E-03
   4    9.997       8.887       7.776       6.666       5.555       4.445       3.335       2.224       1.114      3.3313E-03
   5    9.997       8.887       7.776       6.666       5.555       4.445       3.335       2.224       1.114      3.3313E-03
   6    9.997       8.887       7.776       6.666       5.555       4.445       3.335       2.224       1.114      3.3313E-03
   7    9.997       8.887       7.776       6.666       5.555       4.445       3.335       2.224       1.114      3.3313E-03
   8    9.997       8.887       7.776       6.666       5.555       4.445       3.335       2.224       1.114      3.3313E-03
   9    9.997       8.887       7.776       6.666       5.555       4.445       3.335       2.224       1.114      3.3313E-03
  10    9.997       8.887       7.776       6.666       5.555       4.445       3.335       2.224       1.114      3.3313E-03
1
              HEAD IN LAYER   2 AT END OF TIME STEP   6 IN STRESS PERIOD    2
  ---------------------------------------------------------------------------

            1           2           3           4           5           6           7           8           9          10
 ........................................................................................................................
   1    9.997       8.887       7.776       6.666       5.555       4.445       3.335       2.224       1.114      3.3313E-03
   2    9.997       8.887       7.776       6.666       5.555       4.445       3.335       2.224       1.114      3.3313E-03
   3    9.997       8.887       7.776       6.666       5.555       4.445       3.335       2.224       1.114      3.3313E-03
   4    9.997       8.887       7.776       6.666       5.555       4.445       3.335       2.224       1.114      3.3313E-03
   5    9.997       8.887       7.776       6.666       5.555       4.445       3.335       2.224       1.114      3.3313E-03
   6    9.997       8.887       7.776       6.666       5.555       4.445       3.335       2.224       1.114      3.3313E-03
   7    9.997       8.887       7.776       6.666       5.555       4.445       3.335       2.224       1.114      3.3313E-03
   8    9.997       8.887       7.776       6.666       5.555       4.445       3.335       2.224       1.114      3.3313E-03
   9    9.997       8.887       7.776       6.666       5.555       4.445       3.335       2.224       1.114      3.3313E-03
  10    9.997       8.887       7.776       6.666       5.555       4.445       3.335       2.224       1.114      3.3313E-03
1
              HEAD IN LAYER   3 AT END OF TIME STEP   6 IN STRESS PERIOD    2
  ---------------------------------------------------------------------------

            1           2           3           4           5           6           7           8           9          10
 ........................................................................................................................
   1    9.997       8.887       7.776       6.666       5.555       4.445       3.335       2.224       1.114      3.3313E-03
[...]
             STORAGE =       5.2387E-08               STORAGE =           0.0000
       CONSTANT HEAD =           0.0000         CONSTANT HEAD =           0.0000
               WELLS =           0.0000                 WELLS =           0.0000
     HEAD DEP BOUNDS =      132585.4219       HEAD DEP BOUNDS =         666.2595

           TOTAL OUT =      132585.4219             TOTAL OUT =         666.2595

            IN - OUT =          10.7031              IN - OUT =       5.2795E-02

 PERCENT DISCREPANCY =           0.01     PERCENT DISCREPANCY =           0.01






         TIME SUMMARY AT END OF TIME STEP   98 IN STRESS PERIOD    3
                    SECONDS     MINUTES      HOURS       DAYS        YEARS
                    -----------------------------------------------------------
   TIME STEP LENGTH  86400.      1440.0      24.000      1.0000     2.73785E-03
 STRESS PERIOD TIME 8.46720E+06 1.41120E+05  2352.0      98.000     0.26831    
         TOTAL TIME 1.71936E+07 2.86560E+05  4776.0      199.00     0.54483    
1
 
 SOLVING FOR HEAD 

 OUTPUT CONTROL FOR STRESS PERIOD    3   TIME STEP   99
    SAVE HEAD FOR ALL LAYERS
    SAVE DRAWDOWN FOR ALL LAYERS
    SAVE BUDGET
    PRINT HEAD FOR ALL LAYERS
    PRINT BUDGET
 UBDSV1 SAVING "         STORAGE" ON UNIT  53 AT TIME STEP 99, STRESS PERIOD   3
 UBDSV2 SAVING "   CONSTANT HEAD" ON UNIT  53 AT TIME STEP 99, STRESS PERIOD   3
 UBDSV1 SAVING "FLOW RIGHT FACE " ON UNIT  53 AT TIME STEP 99, STRESS PERIOD   3
 UBDSV1 SAVING "FLOW FRONT FACE " ON UNIT  53 AT TIME STEP 99, STRESS PERIOD   3
 UBDSV1 SAVING "FLOW LOWER FACE " ON UNIT  53 AT TIME STEP 99, STRESS PERIOD   3
1
              HEAD IN LAYER   1 AT END OF TIME STEP  99 IN STRESS PERIOD    3
  ---------------------------------------------------------------------------

            1           2           3           4           5           6           7           8           9          10
 ........................................................................................................................
   1    9.997       8.887       7.776       6.666       5.555       4.445       3.335       2.224       1.114      3.3313E-03
   2    9.997       8.887       7.776       6.666       5.555       4.445       3.335       2.224       1.114      3.3313E-03
   3    9.997       8.887       7.776       6.666       5.555       4.445       3.335       2.224       1.114      3.3313E-03
   4    9.997       8.887       7.776       6.666       5.555       4.445       3.335       2.224       1.114      3.3313E-03
   5    9.997       8.887       7.776       6.666       5.555       4.445       3.335       2.224       1.114      3.3313E-03
   6    9.997       8.887       7.776       6.666       5.555       4.445       3.335       2.224       1.114      3.3313E-03
   7    9.997       8.887       7.776       6.666       5.555       4.445       3.335       2.224       1.114      3.3313E-03
   8    9.997       8.887       7.776       6.666       5.555       4.445       3.335       2.224       1.114      3.3313E-03
   9    9.997       8.887       7.776       6.666       5.555       4.445       3.335       2.224       1.114      3.3313E-03
  10    9.997       8.887       7.776       6.666       5.555       4.445       3.335       2.224       1.114      3.3313E-03
1
              HEAD IN LAYER   2 AT END OF TIME STEP  99 IN STRESS PERIOD    3
  ---------------------------------------------------------------------------

            1           2           3           4           5           6           7           8           9          10
 ........................................................................................................................
   1    9.997       8.887       7.776       6.666       5.555       4.445       3.335       2.224       1.114      3.3313E-03
   2    9.997       8.887       7.776       6.666       5.555       4.445       3.335       2.224       1.114      3.3313E-03
   3    9.997       8.887       7.776       6.666       5.555       4.445       3.335       2.224       1.114      3.3313E-03
   4    9.997       8.887       7.776       6.666       5.555       4.445       3.335       2.224       1.114      3.3313E-03
   5    9.997       8.887       7.776       6.666       5.555       4.445       3.335       2.224       1.114      3.3313E-03
   6    9.997       8.887       7.776       6.666       5.555       4.445       3.335       2.224       1.114      3.3313E-03
   7    9.997       8.887       7.776       6.666       5.555       4.445       3.335       2.224       1.114      3.3313E-03
   8    9.997       8.887       7.776       6.666       5.555       4.445       3.335       2.224       1.114      3.3313E-03
   9    9.997       8.887       7.776       6.666       5.555       4.445       3.335       2.224       1.114      3.3313E-03
  10    9.997       8.887       7.776       6.666       5.555       4.445       3.335       2.224       1.114      3.3313E-03
1
              HEAD IN LAYER   3 AT END OF TIME STEP  99 IN STRESS PERIOD    3
  ---------------------------------------------------------------------------

            1           2           3           4           5           6           7           8           9          10
 ........................................................................................................................
   1    9.997       8.887       7.776       6.666       5.555       4.445       3.335       2.224       1.114      3.3313E-03
   2    9.997       8.887       7.776       6.666       5.555       4.445       3.335       2.224       1.114      3.3313E-03
   3    9.997       8.887       7.776       6.666       5.555       4.445       3.335       2.224       1.114      3.3313E-03
   4    9.997       8.887       7.776       6.666       5.555       4.445       3.335       2.224       1.114      3.3313E-03
   5    9.997       8.887       7.776       6.666       5.555       4.445       3.335       2.224       1.114      3.3313E-03
   6    9.997       8.887       7.776       6.666       5.555       4.445       3.335       2.224       1.114      3.3313E-03
   7    9.997       8.887       7.776       6.666       5.555       4.445       3.335       2.224       1.114      3.3313E-03
   8    9.997       8.887       7.776       6.666       5.555       4.445       3.335       2.224       1.114      3.3313E-03
   9    9.997       8.887       7.776       6.666       5.555       4.445       3.335       2.224       1.114      3.3313E-03
  10    9.997       8.887       7.776       6.666       5.555       4.445       3.335       2.224       1.114      3.3313E-03
1
              HEAD IN LAYER   4 AT END OF TIME STEP  99 IN STRESS PERIOD    3
  ---------------------------------------------------------------------------

            1           2           3           4           5           6           7           8           9          10
 ........................................................................................................................
   1    9.997       8.887       7.776       6.666       5.555       4.445       3.335       2.224       1.114      3.3313E-03
   2    9.997       8.887       7.776       6.666       5.555       4.445       3.335       2.224       1.114      3.3313E-03
   3    9.997       8.887       7.776       6.666       5.555       4.445       3.335       2.224       1.114      3.3313E-03
   4    9.997       8.887       7.776       6.666       5.555       4.445       3.335       2.224       1.114      3.3313E-03
   5    9.997       8.887       7.776       6.666       5.555       4.445       3.335       2.224       1.114      3.3313E-03
   6    9.997       8.887       7.776       6.666       5.555       4.445       3.335       2.224       1.114      3.3313E-03
   7    9.997       8.887       7.776       6.666       5.555       4.445       3.335       2.224       1.114      3.3313E-03
   8    9.997       8.887       7.776       6.666       5.555       4.445       3.335       2.224       1.114      3.3313E-03
   9    9.997       8.887       7.776       6.666       5.555       4.445       3.335       2.224       1.114      3.3313E-03
  10    9.997       8.887       7.776       6.666       5.555       4.445       3.335       2.224       1.114      3.3313E-03

 HEAD WILL BE SAVED ON UNIT   51 AT END OF TIME STEP   99, STRESS PERIOD    3

 DRAWDOWN WILL BE SAVED ON UNIT   52 AT END OF TIME STEP   99, STRESS PERIOD    3
1
  VOLUMETRIC BUDGET FOR ENTIRE MODEL AT END OF TIME STEP   99, STRESS PERIOD   3
  ------------------------------------------------------------------------------

     CUMULATIVE VOLUMES      L**3       RATES FOR THIS TIME STEP      L**3/T
     ------------------                 ------------------------

           IN:                                      IN:
           ---                                      ---
             STORAGE =       1.0477E-08               STORAGE =           0.0000
       CONSTANT HEAD =           0.0000         CONSTANT HEAD =           0.0000
               WELLS =           0.0000                 WELLS =           0.0000
     HEAD DEP BOUNDS =      133262.4375       HEAD DEP BOUNDS =         666.3123

            TOTAL IN =      133262.4375              TOTAL IN =         666.3123

          OUT:                                     OUT:
          ----                                     ----
             STORAGE =       5.2387E-08               STORAGE =           0.0000
       CONSTANT HEAD =           0.0000         CONSTANT HEAD =           0.0000
               WELLS =           0.0000                 WELLS =           0.0000
     HEAD DEP BOUNDS =      133251.6875       HEAD DEP BOUNDS =         666.2595

           TOTAL OUT =      133251.6875             TOTAL OUT =         666.2595

            IN - OUT =          10.7500              IN - OUT =       5.2795E-02

 PERCENT DISCREPANCY =           0.01     PERCENT DISCREPANCY =           0.01






         TIME SUMMARY AT END OF TIME STEP   99 IN STRESS PERIOD    3
                    SECONDS     MINUTES      HOURS       DAYS        YEARS
                    -----------------------------------------------------------
   TIME STEP LENGTH  86400.      1440.0      24.000      1.0000     2.73785E-03
 STRESS PERIOD TIME 8.55360E+06 1.42560E+05  2376.0      99.000     0.27105    
         TOTAL TIME 1.72800E+07 2.88000E+05  4800.0      200.00     0.54757    
1
 
 SOLVING FOR HEAD 

 OUTPUT CONTROL FOR STRESS PERIOD    3   TIME STEP  100
    SAVE HEAD FOR ALL LAYERS
    SAVE DRAWDOWN FOR ALL LAYERS
    SAVE BUDGET
    PRINT HEAD FOR ALL LAYERS
    PRINT BUDGET
 UBDSV1 SAVING "         STORAGE" ON UNIT  53 AT TIME STEP100, STRESS PERIOD   3
 UBDSV2 SAVING "   CONSTANT HEAD" ON UNIT  53 AT TIME STEP100, STRESS PERIOD   3
 UBDSV1 SAVING "FLOW RIGHT FACE " ON UNIT  53 AT TIME STEP100, STRESS PERIOD   3
 UBDSV1 SAVING "FLOW FRONT FACE " ON UNIT  53 AT TIME STEP100, STRESS PERIOD   3
 UBDSV1 SAVING "FLOW LOWER FACE " ON UNIT  53 AT TIME STEP100, STRESS PERIOD   3
1
              HEAD IN LAYER   1 AT END OF TIME STEP 100 IN STRESS PERIOD    3
  ---------------------------------------------------------------------------

            1           2           3           4           5           6           7           8           9          10
 ........................................................................................................................
   1    9.997       8.887       7.776       6.666       5.555       4.445       3.335       2.224       1.114      3.3313E-03
   2    9.997       8.887       7.776       6.666       5.555       4.445       3.335       2.224       1.114      3.3313E-03
   3    9.997       8.887       7.776       6.666       5.555       4.445       3.335       2.224       1.114      3.3313E-03
   4    9.997       8.887       7.776       6.666       5.555       4.445       3.335       2.224       1.114      3.3313E-03
   5    9.997       8.887       7.776       6.666       5.555       4.445       3.335       2.224       1.114      3.3313E-03
   6    9.997       8.887       7.776       6.666       5.555       4.445       3.335       2.224       1.114      3.3313E-03
   7    9.997       8.887       7.776       6.666       5.555       4.445       3.335       2.224       1.114      3.3313E-03
   8    9.997       8.887       7.776       6.666       5.555       4.445       3.335       2.224       1.114      3.3313E-03
   9    9.997       8.887       7.776       6.666       5.555       4.445       3.335       2.224       1.114      3.3313E-03
  10    9.997       8.887       7.776       6.666       5.555       4.445       3.335       2.224       1.114      3.3313E-03
1
              HEAD IN LAYER   2 AT END OF TIME STEP 100 IN STRESS PERIOD    3
  ---------------------------------------------------------------------------

            1           2           3           4           5           6           7           8           9          10
 ........................................................................................................................
   1    9.997       8.887       7.776       6.666       5.555       4.445       3.335       2.224       1.114      3.3313E-03
   2    9.997       8.887       7.776       6.666       5.555       4.445       3.335       2.224       1.114      3.3313E-03
   3    9.997       8.887       7.776       6.666       5.555       4.445       3.335       2.224       1.114      3.3313E-03
   4    9.997       8.887       7.776       6.666       5.555       4.445       3.335       2.224       1.114      3.3313E-03
   5    9.997       8.887       7.776       6.666       5.555       4.445       3.335       2.224       1.114      3.3313E-03
   6    9.997       8.887       7.776       6.666       5.555       4.445       3.335       2.224       1.114      3.3313E-03
   7    9.997       8.887       7.776       6.666       5.555       4.445       3.335       2.224       1.114      3.3313E-03
   8    9.997       8.887       7.776       6.666       5.555       4.445       3.335       2.224       1.114      3.3313E-03
   9    9.997       8.887       7.776       6.666       5.555       4.445       3.335       2.224       1.114      3.3313E-03
  10    9.997       8.887       7.776       6.666       5.555       4.445       3.335       2.224       1.114      3.3313E-03
1
              HEAD IN LAYER   3 AT END OF TIME STEP 100 IN STRESS PERIOD    3
  ---------------------------------------------------------------------------

            1           2           3           4           5           6           7           8           9          10
 ........................................................................................................................
   1    9.997       8.887       7.776       6.666       5.555       4.445       3.335       2.224       1.114      3.3313E-03
   2    9.997       8.887       7.776       6.666       5.555       4.445       3.335       2.224       1.114      3.3313E-03
   3    9.997       8.887       7.776       6.666       5.555       4.445       3.335       2.224       1.114      3.3313E-03
   4    9.997       8.887       7.776       6.666       5.555       4.445       3.335       2.224       1.114      3.3313E-03
   5    9.997       8.887       7.776       6.666       5.555       4.445       3.335       2.224       1.114      3.3313E-03
   6    9.997       8.887       7.776       6.666       5.555       4.445       3.335       2.224       1.114      3.3313E-03
   7    9.997       8.887       7.776       6.666       5.555       4.445       3.335       2.224       1.114      3.3313E-03
   8    9.997       8.887       7.776       6.666       5.555       4.445       3.335       2.224       1.114      3.3313E-03
   9    9.997       8.887       7.776       6.666       5.555       4.445       3.335       2.224       1.114      3.3313E-03
  10    9.997       8.887       7.776       6.666       5.555       4.445       3.335       2.224       1.114      3.3313E-03
1
              HEAD IN LAYER   4 AT END OF TIME STEP 100 IN STRESS PERIOD    3
  ---------------------------------------------------------------------------

            1           2           3           4           5           6           7           8           9          10
 ........................................................................................................................
   1    9.997       8.887       7.776       6.666       5.555       4.445       3.335       2.224       1.114      3.3313E-03
   2    9.997       8.887       7.776       6.666       5.555       4.445       3.335       2.224       1.114      3.3313E-03
   3    9.997       8.887       7.776       6.666       5.555       4.445       3.335       2.224       1.114      3.3313E-03
   4    9.997       8.887       7.776       6.666       5.555       4.445       3.335       2.224       1.114      3.3313E-03
   5    9.997       8.887       7.776       6.666       5.555       4.445       3.335       2.224       1.114      3.3313E-03
   6    9.997       8.887       7.776       6.666       5.555       4.445       3.335       2.224       1.114      3.3313E-03
   7    9.997       8.887       7.776       6.666       5.555       4.445       3.335       2.224       1.114      3.3313E-03
   8    9.997       8.887       7.776       6.666       5.555       4.445       3.335       2.224       1.114      3.3313E-03
   9    9.997       8.887       7.776       6.666       5.555       4.445       3.335       2.224       1.114      3.3313E-03
  10    9.997       8.887       7.776       6.666       5.555       4.445       3.335       2.224       1.114      3.3313E-03

 HEAD WILL BE SAVED ON UNIT   51 AT END OF TIME STEP  100, STRESS PERIOD    3

 DRAWDOWN WILL BE SAVED ON UNIT   52 AT END OF TIME STEP  100, STRESS PERIOD    3
1
  VOLUMETRIC BUDGET FOR ENTIRE MODEL AT END OF TIME STEP  100, STRESS PERIOD   3
  ------------------------------------------------------------------------------

     CUMULATIVE VOLUMES      L**3       RATES FOR THIS TIME STEP      L**3/T
     ------------------                 ------------------------

           IN:                                      IN:
           ---                                      ---
             STORAGE =       1.0477E-08               STORAGE =           0.0000
       CONSTANT HEAD =           0.0000         CONSTANT HEAD =           0.0000
               WELLS =           0.0000                 WELLS =           0.0000
     HEAD DEP BOUNDS =      133928.7500       HEAD DEP BOUNDS =         666.3123

            TOTAL IN =      133928.7500              TOTAL IN =         666.3123

          OUT:                                     OUT:
          ----                                     ----
             STORAGE =       5.2387E-08               STORAGE =           0.0000
       CONSTANT HEAD =           0.0000         CONSTANT HEAD =           0.0000
               WELLS =           0.0000                 WELLS =           0.0000
     HEAD DEP BOUNDS =      133917.9531       HEAD DEP BOUNDS =         666.2595

           TOTAL OUT =      133917.9531             TOTAL OUT =         666.2595

            IN - OUT =          10.7969              IN - OUT =       5.2795E-02

 PERCENT DISCREPANCY =           0.01     PERCENT DISCREPANCY =           0.01






         TIME SUMMARY AT END OF TIME STEP  100 IN STRESS PERIOD    3
                    SECONDS     MINUTES      HOURS       DAYS        YEARS
                    -----------------------------------------------------------
   TIME STEP LENGTH  86400.      1440.0      24.000      1.0000     2.73785E-03
 STRESS PERIOD TIME 8.64000E+06 1.44000E+05  2400.0      100.00     0.27379    
         TOTAL TIME 1.73664E+07 2.89440E+05  4824.0      201.00     0.55031    
1

 Run end date and time (yyyy/mm/dd hh:mm:ss): 2021/10/02 13:05:11
 Elapsed run time:  0.262 Seconds

