                                  MODFLOW-2005     
      U.S. GEOLOGICAL SURVEY MODULAR FINITE-DIFFERENCE GROUND-WATER FLOW MODEL
                            VERSION 1.12.00 2/3/2017

 LIST FILE: Test01.list
                         UNIT    2

 OPENING Test01.dis
 FILE TYPE:DIS   UNIT   11   STATUS:OLD    
 FORMAT:FORMATTED              ACCESS:SEQUENTIAL          

 OPENING Test01.bas
 FILE TYPE:BAS6   UNIT   13   STATUS:OLD    
 FORMAT:FORMATTED              ACCESS:SEQUENTIAL          

 OPENING Test01.lpf
 FILE TYPE:LPF   UNIT   15   STATUS:OLD    
 FORMAT:FORMATTED              ACCESS:SEQUENTIAL          

 OPENING Test01.pcg
 FILE TYPE:PCG   UNIT   27   STATUS:OLD    
 FORMAT:FORMATTED              ACCESS:SEQUENTIAL          

 OPENING Test01.ghb
 FILE TYPE:GHB   UNIT   23   STATUS:OLD    
 FORMAT:FORMATTED              ACCESS:SEQUENTIAL          

 OPENING Test01.wel
 FILE TYPE:WEL   UNIT   20   STATUS:OLD    
 FORMAT:FORMATTED              ACCESS:SEQUENTIAL          

 OPENING Test01.oc
 FILE TYPE:OC   UNIT   14   STATUS:OLD    
 FORMAT:FORMATTED              ACCESS:SEQUENTIAL          

 OPENING Test01.cbc
 FILE TYPE:DATA(BINARY)   UNIT   53   STATUS:REPLACE
 FORMAT:BINARY                 ACCESS:SEQUENTIAL          

 OPENING Test01.hds
 FILE TYPE:DATA(BINARY)   UNIT   51   STATUS:REPLACE
 FORMAT:BINARY                 ACCESS:SEQUENTIAL          

 OPENING Test01.ddn
 FILE TYPE:DATA(BINARY)   UNIT   52   STATUS:REPLACE
 FORMAT:BINARY                 ACCESS:SEQUENTIAL          

 BAS -- BASIC PACKAGE, VERSION 7, 5/2/2005 INPUT READ FROM UNIT   13
 
 MODFLOW was compiled using mixed precision
 Precision of REAL variables:           6
 Precision of DOUBLE PRECISION variables:          15

 DISCRETIZATION INPUT DATA READ FROM UNIT   11
 # DIS package for  MODFLOW-2005, generated by Flopy.
    5 LAYERS         5 ROWS         5 COLUMNS
    3 STRESS PERIOD(S) IN SIMULATION
 MODEL TIME UNIT IS DAYS
 MODEL LENGTH UNIT IS METERS
  Confining bed flag for each layer:
   0   0   0   0   0

                     DELR =   200.000    

                     DELC =   200.000    

 TOP ELEVATION OF LAYER 1 =   10.0000    

   MODEL LAYER BOTTOM EL. =  -2.00000     FOR LAYER   1

   MODEL LAYER BOTTOM EL. =  -14.0000     FOR LAYER   2

   MODEL LAYER BOTTOM EL. =  -26.0000     FOR LAYER   3

   MODEL LAYER BOTTOM EL. =  -38.0000     FOR LAYER   4

   MODEL LAYER BOTTOM EL. =  -50.0000     FOR LAYER   5


 STRESS PERIOD     LENGTH       TIME STEPS     MULTIPLIER FOR DELT    SS FLAG
 ----------------------------------------------------------------------------
        1         1.000000          1                    1.000         SS
        2         100.0000        100                    1.000         TR
        3         100.0000        100                    1.000         TR

 COMBINED STEADY-STATE AND TRANSIENT SIMULATION



 
 # BAS6 package for  MODFLOW-2005, generated by Flopy.                           
 THE FREE FORMAT OPTION HAS BEEN SELECTED



                     BOUNDARY ARRAY FOR LAYER   1
 READING ON UNIT   13 WITH FORMAT: (5I10)              



                     BOUNDARY ARRAY FOR LAYER   2
 READING ON UNIT   13 WITH FORMAT: (5I10)              



                     BOUNDARY ARRAY FOR LAYER   3
 READING ON UNIT   13 WITH FORMAT: (5I10)              



                     BOUNDARY ARRAY FOR LAYER   4
 READING ON UNIT   13 WITH FORMAT: (5I10)              



                     BOUNDARY ARRAY FOR LAYER   5
 READING ON UNIT   13 WITH FORMAT: (5I10)              

 AQUIFER HEAD WILL BE SET TO  -999.99     AT ALL NO-FLOW NODES (IBOUND=0).



                       INITIAL HEAD FOR LAYER   1
 READING ON UNIT   13 WITH FORMAT: (5E15.6)            



                       INITIAL HEAD FOR LAYER   2
 READING ON UNIT   13 WITH FORMAT: (5E15.6)            



                       INITIAL HEAD FOR LAYER   3
 READING ON UNIT   13 WITH FORMAT: (5E15.6)            



                       INITIAL HEAD FOR LAYER   4
 READING ON UNIT   13 WITH FORMAT: (5E15.6)            



                       INITIAL HEAD FOR LAYER   5
 READING ON UNIT   13 WITH FORMAT: (5E15.6)            
 # OC package for  MODFLOW-2005, generated by Flopy.

 OUTPUT CONTROL IS SPECIFIED ONLY AT TIME STEPS FOR WHICH OUTPUT IS DESIRED
 COMPACT CELL-BY-CELL BUDGET FILES WILL BE WRITTEN
 AUXILIARY DATA WILL BE SAVED IN CELL-BY-CELL BUDGET FILES
 HEAD PRINT FORMAT CODE IS   0    DRAWDOWN PRINT FORMAT CODE IS   0
 HEADS WILL BE SAVED ON UNIT   51    DRAWDOWNS WILL BE SAVED ON UNIT   52

 LPF -- LAYER-PROPERTY FLOW PACKAGE, VERSION 7, 5/2/2005
         INPUT READ FROM UNIT   15
 # LPF package for  MODFLOW-2005, generated by Flopy.
 CELL-BY-CELL FLOWS WILL BE SAVED ON UNIT   53
 HEAD AT CELLS THAT CONVERT TO DRY= -1.00000E+30
 No named parameters

   LAYER FLAGS:
 LAYER       LAYTYP        LAYAVG         CHANI        LAYVKA        LAYWET
 ---------------------------------------------------------------------------
    1             0             0     1.000E+00             0             0
    2             0             0     1.000E+00             0             0
    3             0             0     1.000E+00             0             0
    4             0             0     1.000E+00             0             0
    5             0             0     1.000E+00             0             0

   INTERPRETATION OF LAYER FLAGS:
                        INTERBLOCK     HORIZONTAL    DATA IN
         LAYER TYPE   TRANSMISSIVITY   ANISOTROPY   ARRAY VKA   WETTABILITY
 LAYER      (LAYTYP)      (LAYAVG)       (CHANI)      (LAYVKA)      (LAYWET)
 ---------------------------------------------------------------------------
    1      CONFINED      HARMONIC     1.000E+00    VERTICAL K  NON-WETTABLE
    2      CONFINED      HARMONIC     1.000E+00    VERTICAL K  NON-WETTABLE
    3      CONFINED      HARMONIC     1.000E+00    VERTICAL K  NON-WETTABLE
    4      CONFINED      HARMONIC     1.000E+00    VERTICAL K  NON-WETTABLE
    5      CONFINED      HARMONIC     1.000E+00    VERTICAL K  NON-WETTABLE

 WETTING CAPABILITY IS NOT ACTIVE IN ANY LAYER

    HYD. COND. ALONG ROWS =   1.00000     FOR LAYER   1

      VERTICAL HYD. COND. =   1.00000     FOR LAYER   1

         SPECIFIC STORAGE =  1.000000E-04 FOR LAYER   1

    HYD. COND. ALONG ROWS =   1.00000     FOR LAYER   2

      VERTICAL HYD. COND. =   1.00000     FOR LAYER   2

         SPECIFIC STORAGE =  1.000000E-04 FOR LAYER   2

    HYD. COND. ALONG ROWS =   1.00000     FOR LAYER   3

      VERTICAL HYD. COND. =   1.00000     FOR LAYER   3

         SPECIFIC STORAGE =  1.000000E-04 FOR LAYER   3

    HYD. COND. ALONG ROWS =   1.00000     FOR LAYER   4

      VERTICAL HYD. COND. =   1.00000     FOR LAYER   4

         SPECIFIC STORAGE =  1.000000E-04 FOR LAYER   4

    HYD. COND. ALONG ROWS =   1.00000     FOR LAYER   5

      VERTICAL HYD. COND. =   1.00000     FOR LAYER   5

         SPECIFIC STORAGE =  1.000000E-04 FOR LAYER   5

 WEL -- WELL PACKAGE, VERSION 7, 5/2/2005 INPUT READ FROM UNIT   20
 # WEL package for  MODFLOW-2005, generated by Flopy.
 No named parameters
 MAXIMUM OF      1 ACTIVE WELLS AT ONE TIME


     0 Well parameters

 GHB -- GENERAL-HEAD BOUNDARY PACKAGE, VERSION 7, 5/2/2005
         INPUT READ FROM UNIT   23
 # GHB package for  MODFLOW-2005, generated by Flopy.
 No named parameters
 MAXIMUM OF     50 ACTIVE GHB CELLS AT ONE TIME


     0 GHB parameters

 PCG -- CONJUGATE-GRADIENT SOLUTION PACKAGE, VERSION 7, 5/2/2005
 # PCG package for  MODFLOW-2005, generated by Flopy.
 MAXIMUM OF     50 CALLS OF SOLUTION ROUTINE
 MAXIMUM OF     30 INTERNAL ITERATIONS PER CALL TO SOLUTION ROUTINE
 MATRIX PRECONDITIONING TYPE :    1



                                    SOLUTION BY THE CONJUGATE-GRADIENT METHOD
                                   -------------------------------------------
                    MAXIMUM NUMBER OF CALLS TO PCG ROUTINE =       50
                        MAXIMUM ITERATIONS PER CALL TO PCG =       30
                               MATRIX PRECONDITIONING TYPE =        1
        RELAXATION FACTOR (ONLY USED WITH PRECOND. TYPE 1) =    0.10000E+01
 PARAMETER OF POLYNOMIAL PRECOND. = 2 (2) OR IS CALCULATED :        0
                         HEAD CHANGE CRITERION FOR CLOSURE =    0.10000E-04
                     RESIDUAL CHANGE CRITERION FOR CLOSURE =    0.10000E-04
            PCG HEAD AND RESIDUAL CHANGE PRINTOUT INTERVAL =      999
     PRINTING FROM SOLVER IS LIMITED(1) OR SUPPRESSED (>1) =        3
                            STEADY-STATE DAMPING PARAMETER =    0.10000E+01
                               TRANSIENT DAMPING PARAMETER =    0.10000E+01
1
                            STRESS PERIOD NO.    1, LENGTH =   1.000000    
                            -----------------------------------------------

                              NUMBER OF TIME STEPS =     1

                               MULTIPLIER FOR DELT =     1.000

                            INITIAL TIME STEP SIZE =   1.000000    

 WELL NO.  LAYER   ROW   COL   STRESS RATE         
 --------------------------------------------------
      1      1      2      2       0.000    

      1 WELL 

 BOUND. NO. LAYER   ROW   COL     STAGE      CONDUCTANCE         
 ----------------------------------------------------------------
      1      1      1      1       5.000          0.1100E+05
      2      1      1      5       0.000          0.1000E+05
      3      1      2      1       5.000          0.1100E+05
      4      1      2      5       0.000          0.1000E+05
      5      1      3      1       5.000          0.1100E+05
      6      1      3      5       0.000          0.1000E+05
      7      1      4      1       5.000          0.1100E+05
      8      1      4      5       0.000          0.1000E+05
      9      1      5      1       5.000          0.1100E+05
     10      1      5      5       0.000          0.1000E+05
     11      2      1      1       5.000          0.1100E+05
     12      2      1      5       0.000          0.1000E+05
     13      2      2      1       5.000          0.1100E+05
     14      2      2      5       0.000          0.1000E+05
     15      2      3      1       5.000          0.1100E+05
     16      2      3      5       0.000          0.1000E+05
     17      2      4      1       5.000          0.1100E+05
     18      2      4      5       0.000          0.1000E+05
     19      2      5      1       5.000          0.1100E+05
     20      2      5      5       0.000          0.1000E+05
     21      3      1      1       5.000          0.1100E+05
     22      3      1      5       0.000          0.1000E+05
     23      3      2      1       5.000          0.1100E+05
     24      3      2      5       0.000          0.1000E+05
     25      3      3      1       5.000          0.1100E+05
     26      3      3      5       0.000          0.1000E+05
     27      3      4      1       5.000          0.1100E+05
     28      3      4      5       0.000          0.1000E+05
     29      3      5      1       5.000          0.1100E+05
     30      3      5      5       0.000          0.1000E+05
     31      4      1      1       5.000          0.1100E+05
     32      4      1      5       0.000          0.1000E+05
     33      4      2      1       5.000          0.1100E+05
     34      4      2      5       0.000          0.1000E+05
     35      4      3      1       5.000          0.1100E+05
     36      4      3      5       0.000          0.1000E+05
     37      4      4      1       5.000          0.1100E+05
     38      4      4      5       0.000          0.1000E+05
     39      4      5      1       5.000          0.1100E+05
     40      4      5      5       0.000          0.1000E+05
     41      5      1      1       5.000          0.1100E+05
     42      5      1      5       0.000          0.1000E+05
     43      5      2      1       5.000          0.1100E+05
     44      5      2      5       0.000          0.1000E+05
     45      5      3      1       5.000          0.1100E+05
     46      5      3      5       0.000          0.1000E+05
     47      5      4      1       5.000          0.1100E+05
     48      5      4      5       0.000          0.1000E+05
     49      5      5      1       5.000          0.1100E+05
     50      5      5      5       0.000          0.1000E+05

     50 GHB CELLS
 
 SOLVING FOR HEAD 

 OUTPUT CONTROL FOR STRESS PERIOD    1   TIME STEP    1
    SAVE HEAD FOR ALL LAYERS
    SAVE DRAWDOWN FOR ALL LAYERS
    SAVE BUDGET
    PRINT HEAD FOR ALL LAYERS
    PRINT BUDGET
 UBDSV2 SAVING "   CONSTANT HEAD" ON UNIT  53 AT TIME STEP  1, STRESS PERIOD   1
 UBDSV1 SAVING "FLOW RIGHT FACE " ON UNIT  53 AT TIME STEP  1, STRESS PERIOD   1
 UBDSV1 SAVING "FLOW FRONT FACE " ON UNIT  53 AT TIME STEP  1, STRESS PERIOD   1
 UBDSV1 SAVING "FLOW LOWER FACE " ON UNIT  53 AT TIME STEP  1, STRESS PERIOD   1
1
              HEAD IN LAYER   1 AT END OF TIME STEP   1 IN STRESS PERIOD    1
  ---------------------------------------------------------------------------

            1           2           3           4           5
 ............................................................
   1    4.999       3.749       2.500       1.251      1.4991E-03
   2    4.999       3.749       2.500       1.251      1.4991E-03
   3    4.999       3.749       2.500       1.251      1.4991E-03
   4    4.999       3.749       2.500       1.251      1.4991E-03
   5    4.999       3.749       2.500       1.251      1.4991E-03
1
              HEAD IN LAYER   2 AT END OF TIME STEP   1 IN STRESS PERIOD    1
  ---------------------------------------------------------------------------

            1           2           3           4           5
 ............................................................
   1    4.999       3.749       2.500       1.251      1.4991E-03
   2    4.999       3.749       2.500       1.251      1.4991E-03
   3    4.999       3.749       2.500       1.251      1.4991E-03
   4    4.999       3.749       2.500       1.251      1.4991E-03
   5    4.999       3.749       2.500       1.251      1.4991E-03
1
              HEAD IN LAYER   3 AT END OF TIME STEP   1 IN STRESS PERIOD    1
  ---------------------------------------------------------------------------

            1           2           3           4           5
 ............................................................
   1    4.999       3.749       2.500       1.251      1.4991E-03
   2    4.999       3.749       2.500       1.251      1.4991E-03
   3    4.999       3.749       2.500       1.251      1.4991E-03
   4    4.999       3.749       2.500       1.251      1.4991E-03
   5    4.999       3.749       2.500       1.251      1.4991E-03
1
              HEAD IN LAYER   4 AT END OF TIME STEP   1 IN STRESS PERIOD    1
  ---------------------------------------------------------------------------

            1           2           3           4           5
 ............................................................
   1    4.999       3.749       2.500       1.251      1.4991E-03
   2    4.999       3.749       2.500       1.251      1.4991E-03
   3    4.999       3.749       2.500       1.251      1.4991E-03
   4    4.999       3.749       2.500       1.251      1.4991E-03
   5    4.999       3.749       2.500       1.251      1.4991E-03
1
              HEAD IN LAYER   5 AT END OF TIME STEP   1 IN STRESS PERIOD    1
  ---------------------------------------------------------------------------

            1           2           3           4           5
 ............................................................
   1    4.999       3.749       2.500       1.251      1.4991E-03
   2    4.999       3.749       2.500       1.251      1.4991E-03
   3    4.999       3.749       2.500       1.251      1.4991E-03
   4    4.999       3.749       2.500       1.251      1.4991E-03
   5    4.999       3.749       2.500       1.251      1.4991E-03

 HEAD WILL BE SAVED ON UNIT   51 AT END OF TIME STEP    1, STRESS PERIOD    1

 DRAWDOWN WILL BE SAVED ON UNIT   52 AT END OF TIME STEP    1, STRESS PERIOD    1
1
  VOLUMETRIC BUDGET FOR ENTIRE MODEL AT END OF TIME STEP    1, STRESS PERIOD   1
  ------------------------------------------------------------------------------

     CUMULATIVE VOLUMES      L**3       RATES FOR THIS TIME STEP      L**3/T
     ------------------                 ------------------------

           IN:                                      IN:
           ---                                      ---
             STORAGE =           0.0000               STORAGE =           0.0000
       CONSTANT HEAD =           0.0000         CONSTANT HEAD =           0.0000
               WELLS =           0.0000                 WELLS =           0.0000
     HEAD DEP BOUNDS =         374.7853       HEAD DEP BOUNDS =         374.7853

            TOTAL IN =         374.7853              TOTAL IN =         374.7853

          OUT:                                     OUT:
          ----                                     ----
             STORAGE =           0.0000               STORAGE =           0.0000
       CONSTANT HEAD =           0.0000         CONSTANT HEAD =           0.0000
               WELLS =           0.0000                 WELLS =           0.0000
     HEAD DEP BOUNDS =         374.7853       HEAD DEP BOUNDS =         374.7853

           TOTAL OUT =         374.7853             TOTAL OUT =         374.7853

            IN - OUT =      -3.0518E-05              IN - OUT =      -3.0518E-05

 PERCENT DISCREPANCY =          -0.00     PERCENT DISCREPANCY =          -0.00






         TIME SUMMARY AT END OF TIME STEP    1 IN STRESS PERIOD    1
                    SECONDS     MINUTES      HOURS       DAYS        YEARS
                    -----------------------------------------------------------
   TIME STEP LENGTH  86400.      1440.0      24.000      1.0000     2.73785E-03
 STRESS PERIOD TIME  86400.      1440.0      24.000      1.0000     2.73785E-03
         TOTAL TIME  86400.      1440.0      24.000      1.0000     2.73785E-03
1
1
                            STRESS PERIOD NO.    2, LENGTH =   100.0000    
                            -----------------------------------------------

                              NUMBER OF TIME STEPS =   100

                               MULTIPLIER FOR DELT =     1.000

                            INITIAL TIME STEP SIZE =   1.000000    

 WELL NO.  LAYER   ROW   COL   STRESS RATE         
 --------------------------------------------------
      1      1      2      2       0.000    

      1 WELL 

 BOUND. NO. LAYER   ROW   COL     STAGE      CONDUCTANCE         
 ----------------------------------------------------------------
      1      1      1      1       10.00          0.1200E+05
      2      1      1      5       0.000          0.1000E+05
      3      1      2      1       10.00          0.1200E+05
      4      1      2      5       0.000          0.1000E+05
      5      1      3      1       10.00          0.1200E+05
      6      1      3      5       0.000          0.1000E+05
      7      1      4      1       10.00          0.1200E+05
      8      1      4      5       0.000          0.1000E+05
      9      1      5      1       10.00          0.1200E+05
     10      1      5      5       0.000          0.1000E+05
     11      2      1      1       10.00          0.1200E+05
     12      2      1      5       0.000          0.1000E+05
     13      2      2      1       10.00          0.1200E+05
     14      2      2      5       0.000          0.1000E+05
     15      2      3      1       10.00          0.1200E+05
     16      2      3      5       0.000          0.1000E+05
     17      2      4      1       10.00          0.1200E+05
     18      2      4      5       0.000          0.1000E+05
     19      2      5      1       10.00          0.1200E+05
     20      2      5      5       0.000          0.1000E+05
     21      3      1      1       10.00          0.1200E+05
     22      3      1      5       0.000          0.1000E+05
     23      3      2      1       10.00          0.1200E+05
     24      3      2      5       0.000          0.1000E+05
     25      3      3      1       10.00          0.1200E+05
     26      3      3      5       0.000          0.1000E+05
     27      3      4      1       10.00          0.1200E+05
     28      3      4      5       0.000          0.1000E+05
     29      3      5      1       10.00          0.1200E+05
     30      3      5      5       0.000          0.1000E+05
     31      4      1      1       10.00          0.1200E+05
     32      4      1      5       0.000          0.1000E+05
     33      4      2      1       10.00          0.1200E+05
     34      4      2      5       0.000          0.1000E+05
     35      4      3      1       10.00          0.1200E+05
     36      4      3      5       0.000          0.1000E+05
     37      4      4      1       10.00          0.1200E+05
     38      4      4      5       0.000          0.1000E+05
     39      4      5      1       10.00          0.1200E+05
     40      4      5      5       0.000          0.1000E+05
     41      5      1      1       10.00          0.1200E+05
     42      5      1      5       0.000          0.1000E+05
     43      5      2      1       10.00          0.1200E+05
     44      5      2      5       0.000          0.1000E+05
     45      5      3      1       10.00          0.1200E+05
     46      5      3      5       0.000          0.1000E+05
     47      5      4      1       10.00          0.1200E+05
     48      5      4      5       0.000          0.1000E+05
     49      5      5      1       10.00          0.1200E+05
     50      5      5      5       0.000          0.1000E+05

     50 GHB CELLS
 
 SOLVING FOR HEAD 

 OUTPUT CONTROL FOR STRESS PERIOD    2   TIME STEP    1
    SAVE HEAD FOR ALL LAYERS
    SAVE DRAWDOWN FOR ALL LAYERS
    SAVE BUDGET
    PRINT HEAD FOR ALL LAYERS
    PRINT BUDGET
 UBDSV1 SAVING "         STORAGE" ON UNIT  53 AT TIME STEP  1, STRESS PERIOD   2
 UBDSV2 SAVING "   CONSTANT HEAD" ON UNIT  53 AT TIME STEP  1, STRESS PERIOD   2
 UBDSV1 SAVING "FLOW RIGHT FACE " ON UNIT  53 AT TIME STEP  1, STRESS PERIOD   2
 UBDSV1 SAVING "FLOW FRONT FACE " ON UNIT  53 AT TIME STEP  1, STRESS PERIOD   2
 UBDSV1 SAVING "FLOW LOWER FACE " ON UNIT  53 AT TIME STEP  1, STRESS PERIOD   2
1
              HEAD IN LAYER   1 AT END OF TIME STEP   1 IN STRESS PERIOD    2
  ---------------------------------------------------------------------------

            1           2           3           4           5
 ............................................................
   1    9.975       4.603       2.646       1.275      1.5282E-03
   2    9.975       4.603       2.646       1.275      1.5282E-03
   3    9.975       4.603       2.646       1.275      1.5282E-03
   4    9.975       4.603       2.646       1.275      1.5282E-03
   5    9.975       4.603       2.646       1.275      1.5282E-03
1
              HEAD IN LAYER   2 AT END OF TIME STEP   1 IN STRESS PERIOD    2
  ---------------------------------------------------------------------------

            1           2           3           4           5
 ............................................................
   1    9.975       4.603       2.646       1.275      1.5282E-03
   2    9.975       4.603       2.646       1.275      1.5282E-03
   3    9.975       4.603       2.646       1.275      1.5282E-03
   4    9.975       4.603       2.646       1.275      1.5282E-03
   5    9.975       4.603       2.646       1.275      1.5282E-03
1
              HEAD IN LAYER   3 AT END OF TIME STEP   1 IN STRESS PERIOD    2
  ---------------------------------------------------------------------------

            1           2           3           4           5
 ............................................................
   1    9.975       4.603       2.646       1.275      1.5282E-03
   2    9.975       4.603       2.646       1.275      1.5282E-03
   3    9.975       4.603       2.646       1.275      1.5282E-03
   4    9.975       4.603       2.646       1.275      1.5282E-03
   5    9.975       4.603       2.646       1.275      1.5282E-03
1
              HEAD IN LAYER   4 AT END OF TIME STEP   1 IN STRESS PERIOD    2
  ---------------------------------------------------------------------------

            1           2           3           4           5
 ............................................................
   1    9.975       4.603       2.646       1.275      1.5282E-03
   2    9.975       4.603       2.646       1.275      1.5282E-03
   3    9.975       4.603       2.646       1.275      1.5282E-03
   4    9.975       4.603       2.646       1.275      1.5282E-03
   5    9.975       4.603       2.646       1.275      1.5282E-03
1
              HEAD IN LAYER   5 AT END OF TIME STEP   1 IN STRESS PERIOD    2
  ---------------------------------------------------------------------------

            1           2           3           4           5
 ............................................................
   1    9.975       4.603       2.646       1.275      1.5282E-03
   2    9.975       4.603       2.646       1.275      1.5282E-03
   3    9.975       4.603       2.646       1.275      1.5282E-03
   4    9.975       4.603       2.646       1.275      1.5282E-03
   5    9.975       4.603       2.646       1.275      1.5282E-03

 HEAD WILL BE SAVED ON UNIT   51 AT END OF TIME STEP    1, STRESS PERIOD    2

 DRAWDOWN WILL BE SAVED ON UNIT   52 AT END OF TIME STEP    1, STRESS PERIOD    2
1
  VOLUMETRIC BUDGET FOR ENTIRE MODEL AT END OF TIME STEP    1, STRESS PERIOD   2
  ------------------------------------------------------------------------------

     CUMULATIVE VOLUMES      L**3       RATES FOR THIS TIME STEP      L**3/T
     ------------------                 ------------------------

           IN:                                      IN:
           ---                                      ---
             STORAGE =           0.0000               STORAGE =           0.0000
       CONSTANT HEAD =           0.0000         CONSTANT HEAD =           0.0000
               WELLS =           0.0000                 WELLS =           0.0000
     HEAD DEP BOUNDS =        7957.5059       HEAD DEP BOUNDS =        7582.7207

            TOTAL IN =        7957.5059              TOTAL IN =        7582.7207

          OUT:                                     OUT:
          ----                                     ----
             STORAGE =        7200.7319               STORAGE =        7200.7319
       CONSTANT HEAD =           0.0000         CONSTANT HEAD =           0.0000
               WELLS =           0.0000                 WELLS =           0.0000
     HEAD DEP BOUNDS =         756.8463       HEAD DEP BOUNDS =         382.0610

           TOTAL OUT =        7957.5781             TOTAL OUT =        7582.7930

            IN - OUT =      -7.2266E-02              IN - OUT =      -7.2266E-02

 PERCENT DISCREPANCY =          -0.00     PERCENT DISCREPANCY =          -0.00






         TIME SUMMARY AT END OF TIME STEP    1 IN STRESS PERIOD    2
                    SECONDS     MINUTES      HOURS       DAYS        YEARS
                    -----------------------------------------------------------
   TIME STEP LENGTH  86400.      1440.0      24.000      1.0000     2.73785E-03
 STRESS PERIOD TIME  86400.      1440.0      24.000      1.0000     2.73785E-03
         TOTAL TIME 1.72800E+05  2880.0      48.000      2.0000     5.47570E-03
1
 
 SOLVING FOR HEAD 

 OUTPUT CONTROL FOR STRESS PERIOD    2   TIME STEP    2
    SAVE HEAD FOR ALL LAYERS
    SAVE DRAWDOWN FOR ALL LAYERS
    SAVE BUDGET
    PRINT HEAD FOR ALL LAYERS
    PRINT BUDGET
 UBDSV1 SAVING "         STORAGE" ON UNIT  53 AT TIME STEP  2, STRESS PERIOD   2
 UBDSV2 SAVING "   CONSTANT HEAD" ON UNIT  53 AT TIME STEP  2, STRESS PERIOD   2
 UBDSV1 SAVING "FLOW RIGHT FACE " ON UNIT  53 AT TIME STEP  2, STRESS PERIOD   2
 UBDSV1 SAVING "FLOW FRONT FACE " ON UNIT  53 AT TIME STEP  2, STRESS PERIOD   2
 UBDSV1 SAVING "FLOW LOWER FACE " ON UNIT  53 AT TIME STEP  2, STRESS PERIOD   2
1
              HEAD IN LAYER   1 AT END OF TIME STEP   2 IN STRESS PERIOD    2
  ---------------------------------------------------------------------------

            1           2           3           4           5
 ............................................................
   1    9.995       5.210       2.854       1.326      1.5890E-03
   2    9.995       5.210       2.854       1.326      1.5890E-03
   3    9.995       5.210       2.854       1.326      1.5890E-03
   4    9.995       5.210       2.854       1.326      1.5890E-03
   5    9.995       5.210       2.854       1.326      1.5890E-03
1
              HEAD IN LAYER   2 AT END OF TIME STEP   2 IN STRESS PERIOD    2
  ---------------------------------------------------------------------------

            1           2           3           4           5
 ............................................................
   1    9.995       5.210       2.854       1.326      1.5890E-03
   2    9.995       5.210       2.854       1.326      1.5890E-03
   3    9.995       5.210       2.854       1.326      1.5890E-03
   4    9.995       5.210       2.854       1.326      1.5890E-03
   5    9.995       5.210       2.854       1.326      1.5890E-03
1
              HEAD IN LAYER   3 AT END OF TIME STEP   2 IN STRESS PERIOD    2
  ---------------------------------------------------------------------------

            1           2           3           4           5
 ............................................................
   1    9.995       5.210       2.854       1.326      1.5890E-03
   2    9.995       5.210       2.854       1.326      1.5890E-03
   3    9.995       5.210       2.854       1.326      1.5890E-03
   4    9.995       5.210       2.854       1.326      1.5890E-03
   5    9.995       5.210       2.854       1.326      1.5890E-03
1
              HEAD IN LAYER   4 AT END OF TIME STEP   2 IN STRESS PERIOD    2
  ---------------------------------------------------------------------------

            1           2           3           4           5
 ............................................................
   1    9.995       5.210       2.854       1.326      1.5890E-03
   2    9.995       5.210       2.854       1.326      1.5890E-03
   3    9.995       5.210       2.854       1.326      1.5890E-03
   4    9.995       5.210       2.854       1.326      1.5890E-03
   5    9.995       5.210       2.854       1.326      1.5890E-03
1
              HEAD IN LAYER   5 AT END OF TIME STEP   2 IN STRESS PERIOD    2
  ---------------------------------------------------------------------------

            1           2           3           4           5
 ............................................................
   1    9.995       5.210       2.854       1.326      1.5890E-03
   2    9.995       5.210       2.854       1.326      1.5890E-03
   3    9.995       5.210       2.854       1.326      1.5890E-03
   4    9.995       5.210       2.854       1.326      1.5890E-03
   5    9.995       5.210       2.854       1.326      1.5890E-03

 HEAD WILL BE SAVED ON UNIT   51 AT END OF TIME STEP    2, STRESS PERIOD    2

 DRAWDOWN WILL BE SAVED ON UNIT   52 AT END OF TIME STEP    2, STRESS PERIOD    2
1
  VOLUMETRIC BUDGET FOR ENTIRE MODEL AT END OF TIME STEP    2, STRESS PERIOD   2
  ------------------------------------------------------------------------------

     CUMULATIVE VOLUMES      L**3       RATES FOR THIS TIME STEP      L**3/T
     ------------------                 ------------------------

           IN:                                      IN:
           ---                                      ---
             STORAGE =           0.0000               STORAGE =           0.0000
       CONSTANT HEAD =           0.0000         CONSTANT HEAD =           0.0000
               WELLS =           0.0000                 WELLS =           0.0000
     HEAD DEP BOUNDS =        9417.4219       HEAD DEP BOUNDS =        1459.9161

            TOTAL IN =        9417.4219              TOTAL IN =        1459.9161

          OUT:                                     OUT:
          ----                                     ----
             STORAGE =        8263.4570               STORAGE =        1062.7255
       CONSTANT HEAD =           0.0000         CONSTANT HEAD =           0.0000
               WELLS =           0.0000                 WELLS =           0.0000
     HEAD DEP BOUNDS =        1154.0947       HEAD DEP BOUNDS =         397.2485

           TOTAL OUT =        9417.5518             TOTAL OUT =        1459.9739

            IN - OUT =          -0.1299              IN - OUT =      -5.7739E-02

 PERCENT DISCREPANCY =          -0.00     PERCENT DISCREPANCY =          -0.00






         TIME SUMMARY AT END OF TIME STEP    2 IN STRESS PERIOD    2
                    SECONDS     MINUTES      HOURS       DAYS        YEARS
                    -----------------------------------------------------------
   TIME STEP LENGTH  86400.      1440.0      24.000      1.0000     2.73785E-03
 STRESS PERIOD TIME 1.72800E+05  2880.0      48.000      2.0000     5.47570E-03
         TOTAL TIME 2.59200E+05  4320.0      72.000      3.0000     8.21355E-03
1
 
 SOLVING FOR HEAD 

 OUTPUT CONTROL FOR STRESS PERIOD    2   TIME STEP    3
    SAVE HEAD FOR ALL LAYERS
    SAVE DRAWDOWN FOR ALL LAYERS
    SAVE BUDGET
    PRINT HEAD FOR ALL LAYERS
    PRINT BUDGET
 UBDSV1 SAVING "         STORAGE" ON UNIT  53 AT TIME STEP  3, STRESS PERIOD   2
 UBDSV2 SAVING "   CONSTANT HEAD" ON UNIT  53 AT TIME STEP  3, STRESS PERIOD   2
 UBDSV1 SAVING "FLOW RIGHT FACE " ON UNIT  53 AT TIME STEP  3, STRESS PERIOD   2
 UBDSV1 SAVING "FLOW FRONT FACE " ON UNIT  53 AT TIME STEP  3, STRESS PERIOD   2
 UBDSV1 SAVING "FLOW LOWER FACE " ON UNIT  53 AT TIME STEP  3, STRESS PERIOD   2
1
              HEAD IN LAYER   1 AT END OF TIME STEP   3 IN STRESS PERIOD    2
  ---------------------------------------------------------------------------

            1           2           3           4           5
 ............................................................
   1    9.996       5.652       3.077       1.397      1.6742E-03
   2    9.996       5.652       3.077       1.397      1.6742E-03
   3    9.996       5.652       3.077       1.397      1.6742E-03
   4    9.996       5.652       3.077       1.397      1.6742E-03
   5    9.996       5.652       3.077       1.397      1.6742E-03
1
              HEAD IN LAYER   2 AT END OF TIME STEP   3 IN STRESS PERIOD    2
  ---------------------------------------------------------------------------

            1           2           3           4           5
 ............................................................
   1    9.996       5.652       3.077       1.397      1.6742E-03
   2    9.996       5.652       3.077       1.397      1.6742E-03
   3    9.996       5.652       3.077       1.397      1.6742E-03
   4    9.996       5.652       3.077       1.397      1.6742E-03
   5    9.996       5.652       3.077       1.397      1.6742E-03
1
              HEAD IN LAYER   3 AT END OF TIME STEP   3 IN STRESS PERIOD    2
  ---------------------------------------------------------------------------

            1           2           3           4           5
 ............................................................
   1    9.996       5.652       3.077       1.397      1.6742E-03
   2    9.996       5.652       3.077       1.397      1.6742E-03
   3    9.996       5.652       3.077       1.397      1.6742E-03
   4    9.996       5.652       3.077       1.397      1.6742E-03
   5    9.996       5.652       3.077       1.397      1.6742E-03
1
              HEAD IN LAYER   4 AT END OF TIME STEP   3 IN STRESS PERIOD    2
  ---------------------------------------------------------------------------

            1           2           3           4           5
 ............................................................
   1    9.996       5.652       3.077       1.397      1.6742E-03
   2    9.996       5.652       3.077       1.397      1.6742E-03
   3    9.996       5.652       3.077       1.397      1.6742E-03
   4    9.996       5.652       3.077       1.397      1.6742E-03
   5    9.996       5.652       3.077       1.397      1.6742E-03
1
              HEAD IN LAYER   5 AT END OF TIME STEP   3 IN STRESS PERIOD    2
  ---------------------------------------------------------------------------

            1           2           3           4           5
 ............................................................
   1    9.996       5.652       3.077       1.397      1.6742E-03
   2    9.996       5.652       3.077       1.397      1.6742E-03
   3    9.996       5.652       3.077       1.397      1.6742E-03
   4    9.996       5.652       3.077       1.397      1.6742E-03
   5    9.996       5.652       3.077       1.397      1.6742E-03

 HEAD WILL BE SAVED ON UNIT   51 AT END OF TIME STEP    3, STRESS PERIOD    2

 DRAWDOWN WILL BE SAVED ON UNIT   52 AT END OF TIME STEP    3, STRESS PERIOD    2
1
  VOLUMETRIC BUDGET FOR ENTIRE MODEL AT END OF TIME STEP    3, STRESS PERIOD   2
  ------------------------------------------------------------------------------

     CUMULATIVE VOLUMES      L**3       RATES FOR THIS TIME STEP      L**3/T
     ------------------                 ------------------------

           IN:                                      IN:
           ---                                      ---
             STORAGE =           0.0000               STORAGE =           0.0000
       CONSTANT HEAD =           0.0000         CONSTANT HEAD =           0.0000
               WELLS =           0.0000                 WELLS =           0.0000
     HEAD DEP BOUNDS =       10721.0742       HEAD DEP BOUNDS =        1303.6528

            TOTAL IN =       10721.0742              TOTAL IN =        1303.6528

          OUT:                                     OUT:
          ----                                     ----
             STORAGE =        9148.5449               STORAGE =         885.0880
       CONSTANT HEAD =           0.0000         CONSTANT HEAD =           0.0000
               WELLS =           0.0000                 WELLS =           0.0000
     HEAD DEP BOUNDS =        1572.6398       HEAD DEP BOUNDS =         418.5450

           TOTAL OUT =       10721.1846             TOTAL OUT =        1303.6331

            IN - OUT =          -0.1104              IN - OUT =       1.9775E-02

 PERCENT DISCREPANCY =          -0.00     PERCENT DISCREPANCY =           0.00






         TIME SUMMARY AT END OF TIME STEP    3 IN STRESS PERIOD    2
                    SECONDS     MINUTES      HOURS       DAYS        YEARS
                    -----------------------------------------------------------
   TIME STEP LENGTH  86400.      1440.0      24.000      1.0000     2.73785E-03
 STRESS PERIOD TIME 2.59200E+05  4320.0      72.000      3.0000     8.21355E-03
         TOTAL TIME 3.45600E+05  5760.0      96.000      4.0000     1.09514E-02
1
 
 SOLVING FOR HEAD 

 OUTPUT CONTROL FOR STRESS PERIOD    2   TIME STEP    4
    SAVE HEAD FOR ALL LAYERS
    SAVE DRAWDOWN FOR ALL LAYERS
    SAVE BUDGET
    PRINT HEAD FOR ALL LAYERS
    PRINT BUDGET
 UBDSV1 SAVING "         STORAGE" ON UNIT  53 AT TIME STEP  4, STRESS PERIOD   2
 UBDSV2 SAVING "   CONSTANT HEAD" ON UNIT  53 AT TIME STEP  4, STRESS PERIOD   2
 UBDSV1 SAVING "FLOW RIGHT FACE " ON UNIT  53 AT TIME STEP  4, STRESS PERIOD   2
 UBDSV1 SAVING "FLOW FRONT FACE " ON UNIT  53 AT TIME STEP  4, STRESS PERIOD   2
 UBDSV1 SAVING "FLOW LOWER FACE " ON UNIT  53 AT TIME STEP  4, STRESS PERIOD   2
1
              HEAD IN LAYER   1 AT END OF TIME STEP   4 IN STRESS PERIOD    2
  ---------------------------------------------------------------------------

            1           2           3           4           5
 ............................................................
   1    9.996       5.983       3.296       1.481      1.7746E-03
   2    9.996       5.983       3.296       1.481      1.7746E-03
   3    9.996       5.983       3.296       1.481      1.7746E-03
   4    9.996       5.983       3.296       1.481      1.7746E-03
   5    9.996       5.983       3.296       1.481      1.7746E-03
1
              HEAD IN LAYER   2 AT END OF TIME STEP   4 IN STRESS PERIOD    2
  ---------------------------------------------------------------------------

            1           2           3           4           5
 ............................................................
   1    9.996       5.983       3.296       1.481      1.7746E-03
   2    9.996       5.983       3.296       1.481      1.7746E-03
   3    9.996       5.983       3.296       1.481      1.7746E-03
   4    9.996       5.983       3.296       1.481      1.7746E-03
   5    9.996       5.983       3.296       1.481      1.7746E-03
1
              HEAD IN LAYER   3 AT END OF TIME STEP   4 IN STRESS PERIOD    2
  ---------------------------------------------------------------------------

            1           2           3           4           5
 ............................................................
   1    9.996       5.983       3.296       1.481      1.7746E-03
   2    9.996       5.983       3.296       1.481      1.7746E-03
   3    9.996       5.983       3.296       1.481      1.7746E-03
   4    9.996       5.983       3.296       1.481      1.7746E-03
   5    9.996       5.983       3.296       1.481      1.7746E-03
1
              HEAD IN LAYER   4 AT END OF TIME STEP   4 IN STRESS PERIOD    2
  ---------------------------------------------------------------------------

            1           2           3           4           5
 ............................................................
   1    9.996       5.983       3.296       1.481      1.7746E-03
   2    9.996       5.983       3.296       1.481      1.7746E-03
   3    9.996       5.983       3.296       1.481      1.7746E-03
   4    9.996       5.983       3.296       1.481      1.7746E-03
   5    9.996       5.983       3.296       1.481      1.7746E-03
1
              HEAD IN LAYER   5 AT END OF TIME STEP   4 IN STRESS PERIOD    2
  ---------------------------------------------------------------------------

            1           2           3           4           5
 ............................................................
   1    9.996       5.983       3.296       1.481      1.7746E-03
   2    9.996       5.983       3.296       1.481      1.7746E-03
   3    9.996       5.983       3.296       1.481      1.7746E-03
   4    9.996       5.983       3.296       1.481      1.7746E-03
   5    9.996       5.983       3.296       1.481      1.7746E-03

 HEAD WILL BE SAVED ON UNIT   51 AT END OF TIME STEP    4, STRESS PERIOD    2

 DRAWDOWN WILL BE SAVED ON UNIT   52 AT END OF TIME STEP    4, STRESS PERIOD    2
1
  VOLUMETRIC BUDGET FOR ENTIRE MODEL AT END OF TIME STEP    4, STRESS PERIOD   2
  ------------------------------------------------------------------------------

     CUMULATIVE VOLUMES      L**3       RATES FOR THIS TIME STEP      L**3/T
     ------------------                 ------------------------

           IN:                                      IN:
           ---                                      ---
             STORAGE =           0.0000               STORAGE =           0.0000
       CONSTANT HEAD =           0.0000         CONSTANT HEAD =           0.0000
               WELLS =           0.0000                 WELLS =           0.0000
     HEAD DEP BOUNDS =       11925.2861       HEAD DEP BOUNDS =        1204.2122

            TOTAL IN =       11925.2861              TOTAL IN =        1204.2122

          OUT:                                     OUT:
          ----                                     ----
             STORAGE =        9909.0479               STORAGE =         760.5030
       CONSTANT HEAD =           0.0000         CONSTANT HEAD =           0.0000
               WELLS =           0.0000                 WELLS =           0.0000
     HEAD DEP BOUNDS =        2016.2906       HEAD DEP BOUNDS =         443.6509

           TOTAL OUT =       11925.3389             TOTAL OUT =        1204.1538

            IN - OUT =      -5.2734E-02              IN - OUT =       5.8350E-02

 PERCENT DISCREPANCY =          -0.00     PERCENT DISCREPANCY =           0.00






         TIME SUMMARY AT END OF TIME STEP    4 IN STRESS PERIOD    2
                    SECONDS     MINUTES      HOURS       DAYS        YEARS
                    -----------------------------------------------------------
   TIME STEP LENGTH  86400.      1440.0      24.000      1.0000     2.73785E-03
 STRESS PERIOD TIME 3.45600E+05  5760.0      96.000      4.0000     1.09514E-02
         TOTAL TIME 4.32000E+05  7200.0      120.00      5.0000     1.36893E-02
1
 
 SOLVING FOR HEAD 

 OUTPUT CONTROL FOR STRESS PERIOD    2   TIME STEP    5
    SAVE HEAD FOR ALL LAYERS
    SAVE DRAWDOWN FOR ALL LAYERS
    SAVE BUDGET
    PRINT HEAD FOR ALL LAYERS
    PRINT BUDGET
 UBDSV1 SAVING "         STORAGE" ON UNIT  53 AT TIME STEP  5, STRESS PERIOD   2
 UBDSV2 SAVING "   CONSTANT HEAD" ON UNIT  53 AT TIME STEP  5, STRESS PERIOD   2
 UBDSV1 SAVING "FLOW RIGHT FACE " ON UNIT  53 AT TIME STEP  5, STRESS PERIOD   2
 UBDSV1 SAVING "FLOW FRONT FACE " ON UNIT  53 AT TIME STEP  5, STRESS PERIOD   2
 UBDSV1 SAVING "FLOW LOWER FACE " ON UNIT  53 AT TIME STEP  5, STRESS PERIOD   2
1
              HEAD IN LAYER   1 AT END OF TIME STEP   5 IN STRESS PERIOD    2
  ---------------------------------------------------------------------------

            1           2           3           4           5
 ............................................................
   1    9.996       6.238       3.499       1.571      1.8821E-03
   2    9.996       6.238       3.499       1.571      1.8821E-03
   3    9.996       6.238       3.499       1.571      1.8821E-03
   4    9.996       6.238       3.499       1.571      1.8821E-03
   5    9.996       6.238       3.499       1.571      1.8821E-03
1
              HEAD IN LAYER   2 AT END OF TIME STEP   5 IN STRESS PERIOD    2
  ---------------------------------------------------------------------------

            1           2           3           4           5
 ............................................................
   1    9.996       6.238       3.499       1.571      1.8821E-03
   2    9.996       6.238       3.499       1.571      1.8821E-03
   3    9.996       6.238       3.499       1.571      1.8821E-03
   4    9.996       6.238       3.499       1.571      1.8821E-03
   5    9.996       6.238       3.499       1.571      1.8821E-03
1
              HEAD IN LAYER   3 AT END OF TIME STEP   5 IN STRESS PERIOD    2
  ---------------------------------------------------------------------------

            1           2           3           4           5
 ............................................................
   1    9.996       6.238       3.499       1.571      1.8821E-03
   2    9.996       6.238       3.499       1.571      1.8821E-03
   3    9.996       6.238       3.499       1.571      1.8821E-03
   4    9.996       6.238       3.499       1.571      1.8821E-03
   5    9.996       6.238       3.499       1.571      1.8821E-03
1
              HEAD IN LAYER   4 AT END OF TIME STEP   5 IN STRESS PERIOD    2
  ---------------------------------------------------------------------------

            1           2           3           4           5
 ............................................................
   1    9.996       6.238       3.499       1.571      1.8821E-03
   2    9.996       6.238       3.499       1.571      1.8821E-03
   3    9.996       6.238       3.499       1.571      1.8821E-03
   4    9.996       6.238       3.499       1.571      1.8821E-03
   5    9.996       6.238       3.499       1.571      1.8821E-03
1
              HEAD IN LAYER   5 AT END OF TIME STEP   5 IN STRESS PERIOD    2
  ---------------------------------------------------------------------------

            1           2           3           4           5
 ............................................................
   1    9.996       6.238       3.499       1.571      1.8821E-03
   2    9.996       6.238       3.499       1.571      1.8821E-03
   3    9.996       6.238       3.499       1.571      1.8821E-03
   4    9.996       6.238       3.499       1.571      1.8821E-03
   5    9.996       6.238       3.499       1.571      1.8821E-03

 HEAD WILL BE SAVED ON UNIT   51 AT END OF TIME STEP    5, STRESS PERIOD    2

 DRAWDOWN WILL BE SAVED ON UNIT   52 AT END OF TIME STEP    5, STRESS PERIOD    2
1
  VOLUMETRIC BUDGET FOR ENTIRE MODEL AT END OF TIME STEP    5, STRESS PERIOD   2
  ------------------------------------------------------------------------------

     CUMULATIVE VOLUMES      L**3       RATES FOR THIS TIME STEP      L**3/T
     ------------------                 ------------------------

           IN:                                      IN:
           ---                                      ---
             STORAGE =           0.0000               STORAGE =           0.0000
       CONSTANT HEAD =           0.0000         CONSTANT HEAD =           0.0000
               WELLS =           0.0000                 WELLS =           0.0000
     HEAD DEP BOUNDS =       13053.0957       HEAD DEP BOUNDS =        1127.8097

            TOTAL IN =       13053.0957              TOTAL IN =        1127.8097

          OUT:                                     OUT:
          ----                                     ----
             STORAGE =       10566.2607               STORAGE =         657.2125
       CONSTANT HEAD =           0.0000         CONSTANT HEAD =           0.0000
               WELLS =           0.0000                 WELLS =           0.0000
     HEAD DEP BOUNDS =        2486.8223       HEAD DEP BOUNDS =         470.5316

           TOTAL OUT =       13053.0830             TOTAL OUT =        1127.7440

            IN - OUT =       1.2695E-02              IN - OUT =       6.5674E-02

 PERCENT DISCREPANCY =           0.00     PERCENT DISCREPANCY =           0.01






         TIME SUMMARY AT END OF TIME STEP    5 IN STRESS PERIOD    2
                    SECONDS     MINUTES      HOURS       DAYS        YEARS
                    -----------------------------------------------------------
   TIME STEP LENGTH  86400.      1440.0      24.000      1.0000     2.73785E-03
 STRESS PERIOD TIME 4.32000E+05  7200.0      120.00      5.0000     1.36893E-02
         TOTAL TIME 5.18400E+05  8640.0      144.00      6.0000     1.64271E-02
1
 
 SOLVING FOR HEAD 

 OUTPUT CONTROL FOR STRESS PERIOD    2   TIME STEP    6
    SAVE HEAD FOR ALL LAYERS
    SAVE DRAWDOWN FOR ALL LAYERS
    SAVE BUDGET
    PRINT HEAD FOR ALL LAYERS
    PRINT BUDGET
 UBDSV1 SAVING "         STORAGE" ON UNIT  53 AT TIME STEP  6, STRESS PERIOD   2
 UBDSV2 SAVING "   CONSTANT HEAD" ON UNIT  53 AT TIME STEP  6, STRESS PERIOD   2
 UBDSV1 SAVING "FLOW RIGHT FACE " ON UNIT  53 AT TIME STEP  6, STRESS PERIOD   2
 UBDSV1 SAVING "FLOW FRONT FACE " ON UNIT  53 AT TIME STEP  6, STRESS PERIOD   2
 UBDSV1 SAVING "FLOW LOWER FACE " ON UNIT  53 AT TIME STEP  6, STRESS PERIOD   2
1
              HEAD IN LAYER   1 AT END OF TIME STEP   6 IN STRESS PERIOD    2
  ---------------------------------------------------------------------------

            1           2           3           4           5
 ............................................................
   1    9.996       6.439       3.682       1.661      1.9906E-03
   2    9.996       6.439       3.682       1.661      1.9906E-03
   3    9.996       6.439       3.682       1.661      1.9906E-03
   4    9.996       6.439       3.682       1.661      1.9906E-03
   5    9.996       6.439       3.682       1.661      1.9906E-03
1
              HEAD IN LAYER   2 AT END OF TIME STEP   6 IN STRESS PERIOD    2
  ---------------------------------------------------------------------------

            1           2           3           4           5
 ............................................................
   1    9.996       6.439       3.682       1.661      1.9906E-03
   2    9.996       6.439       3.682       1.661      1.9906E-03
   3    9.996       6.439       3.682       1.661      1.9906E-03
   4    9.996       6.439       3.682       1.661      1.9906E-03
   5    9.996       6.439       3.682       1.661      1.9906E-03
1
              HEAD IN LAYER   3 AT END OF TIME STEP   6 IN STRESS PERIOD    2
  ---------------------------------------------------------------------------

            1           2           3           4           5
 ............................................................
   1    9.996       6.439       3.682       1.661      1.9906E-03
   2    9.996       6.439       3.682       1.661      1.9906E-03
   3    9.996       6.439       3.682       1.661      1.9906E-03
   4    9.996       6.439       3.682       1.661      1.9906E-03
   5    9.996       6.439       3.682       1.661      1.9906E-03
1
              HEAD IN LAYER   4 AT END OF TIME STEP   6 IN STRESS PERIOD    2
  ---------------------------------------------------------------------------

            1           2           3           4           5
 ............................................................
   1    9.996       6.439       3.682       1.661      1.9906E-03
   2    9.996       6.439       3.682       1.661      1.9906E-03
   3    9.996       6.439       3.682       1.661      1.9906E-03
   4    9.996       6.439       3.682       1.661      1.9906E-03
   5    9.996       6.439       3.682       1.661      1.9906E-03
1
              HEAD IN LAYER   5 AT END OF TIME STEP   6 IN STRESS PERIOD    2
  ---------------------------------------------------------------------------

            1           2           3           4           5
 ............................................................
   1    9.996       6.439       3.682       1.661      1.9906E-03
   2    9.996       6.439       3.682       1.661      1.9906E-03
   3    9.996       6.439       3.682       1.661      1.9906E-03
   4    9.996       6.439       3.682       1.661      1.9906E-03
   5    9.996       6.439       3.682       1.661      1.9906E-03

 HEAD WILL BE SAVED ON UNIT   51 AT END OF TIME STEP    6, STRESS PERIOD    2

 DRAWDOWN WILL BE SAVED ON UNIT   52 AT END OF TIME STEP    6, STRESS PERIOD    2
1
  VOLUMETRIC BUDGET FOR ENTIRE MODEL AT END OF TIME STEP    6, STRESS PERIOD   2
  ------------------------------------------------------------------------------

     CUMULATIVE VOLUMES      L**3       RATES FOR THIS TIME STEP      L**3/T
     ------------------                 ------------------------

           IN:                                      IN:
           ---                                      ---
             STORAGE =           0.0000               STORAGE =           0.0000
       CONSTANT HEAD =           0.0000         CONSTANT HEAD =           0.0000
               WELLS =           0.0000                 WELLS =           0.0000
     HEAD DEP BOUNDS =       14120.6885       HEAD DEP BOUNDS =        1067.5924

            TOTAL IN =       14120.6885              TOTAL IN =        1067.5924

          OUT:                                     OUT:
          ----                                     ----
             STORAGE =       11136.2324               STORAGE =         569.9717
       CONSTANT HEAD =           0.0000         CONSTANT HEAD =           0.0000
               WELLS =           0.0000                 WELLS =           0.0000
     HEAD DEP BOUNDS =        2984.4617       HEAD DEP BOUNDS =         497.6395

           TOTAL OUT =       14120.6943             TOTAL OUT =        1067.6111

            IN - OUT =      -5.8594E-03              IN - OUT =      -1.8677E-02

 PERCENT DISCREPANCY =          -0.00     PERCENT DISCREPANCY =          -0.00






         TIME SUMMARY AT END OF TIME STEP    6 IN STRESS PERIOD    2
                    SECONDS     MINUTES      HOURS       DAYS        YEARS
                    -----------------------------------------------------------
   TIME STEP LENGTH  86400.      1440.0      24.000      1.0000     2.73785E-03
 STRESS PERIOD TIME 5.18400E+05  8640.0      144.00      6.0000     1.64271E-02
         TOTAL TIME 6.04800E+05  10080.      168.00      7.0000     1.91650E-02
1
 
 SOLVING FOR HEAD 

 OUTPUT CONTROL FOR STRESS PERIOD    2   TIME STEP    7
    SAVE HEAD FOR ALL LAYERS
    SAVE DRAWDOWN FOR ALL LAYERS
    SAVE BUDGET
    PRINT HEAD FOR ALL LAYERS
    PRINT BUDGET
 UBDSV1 SAVING "         STORAGE" ON UNIT  53 AT TIME STEP  7, STRESS PERIOD   2
 UBDSV2 SAVING "   CONSTANT HEAD" ON UNIT  53 AT TIME STEP  7, STRESS PERIOD   2
 UBDSV1 SAVING "FLOW RIGHT FACE " ON UNIT  53 AT TIME STEP  7, STRESS PERIOD   2
 UBDSV1 SAVING "FLOW FRONT FACE " ON UNIT  53 AT TIME STEP  7, STRESS PERIOD   2
 UBDSV1 SAVING "FLOW LOWER FACE " ON UNIT  53 AT TIME STEP  7, STRESS PERIOD   2
1
              HEAD IN LAYER   1 AT END OF TIME STEP   7 IN STRESS PERIOD    2
  ---------------------------------------------------------------------------

            1           2           3           4           5
 ............................................................
   1    9.997       6.600       3.846       1.749      2.0956E-03
   2    9.997       6.600       3.846       1.749      2.0956E-03
   3    9.997       6.600       3.846       1.749      2.0956E-03
   4    9.997       6.600       3.846       1.749      2.0956E-03
   5    9.997       6.600       3.846       1.749      2.0956E-03
1
              HEAD IN LAYER   2 AT END OF TIME STEP   7 IN STRESS PERIOD    2
  ---------------------------------------------------------------------------

            1           2           3           4           5
 ............................................................
   1    9.997       6.600       3.846       1.749      2.0956E-03
   2    9.997       6.600       3.846       1.749      2.0956E-03
   3    9.997       6.600       3.846       1.749      2.0956E-03
   4    9.997       6.600       3.846       1.749      2.0956E-03
   5    9.997       6.600       3.846       1.749      2.0956E-03
1
              HEAD IN LAYER   3 AT END OF TIME STEP   7 IN STRESS PERIOD    2
  ---------------------------------------------------------------------------

            1           2           3           4           5
 ............................................................
   1    9.997       6.600       3.846       1.749      2.0956E-03
   2    9.997       6.600       3.846       1.749      2.0956E-03
   3    9.997       6.600       3.846       1.749      2.0956E-03
   4    9.997       6.600       3.846       1.749      2.0956E-03
   5    9.997       6.600       3.846       1.749      2.0956E-03
1
              HEAD IN LAYER   4 AT END OF TIME STEP   7 IN STRESS PERIOD    2
  ---------------------------------------------------------------------------

            1           2           3           4           5
 ............................................................
   1    9.997       6.600       3.846       1.749      2.0956E-03
   2    9.997       6.600       3.846       1.749      2.0956E-03
   3    9.997       6.600       3.846       1.749      2.0956E-03
   4    9.997       6.600       3.846       1.749      2.0956E-03
   5    9.997       6.600       3.846       1.749      2.0956E-03
1
              HEAD IN LAYER   5 AT END OF TIME STEP   7 IN STRESS PERIOD    2
  ---------------------------------------------------------------------------

            1           2           3           4           5
 ............................................................
   1    9.997       6.600       3.846       1.749      2.0956E-03
   2    9.997       6.600       3.846       1.749      2.0956E-03
   3    9.997       6.600       3.846       1.749      2.0956E-03
   4    9.997       6.600       3.846       1.749      2.0956E-03
   5    9.997       6.600       3.846       1.749      2.0956E-03

 HEAD WILL BE SAVED ON UNIT   51 AT END OF TIME STEP    7, STRESS PERIOD    2

 DRAWDOWN WILL BE SAVED ON UNIT   52 AT END OF TIME STEP    7, STRESS PERIOD    2
1
  VOLUMETRIC BUDGET FOR ENTIRE MODEL AT END OF TIME STEP    7, STRESS PERIOD   2
  ------------------------------------------------------------------------------

     CUMULATIVE VOLUMES      L**3       RATES FOR THIS TIME STEP      L**3/T
     ------------------                 ------------------------

           IN:                                      IN:
           ---                                      ---
             STORAGE =           0.0000               STORAGE =           0.0000
       CONSTANT HEAD =           0.0000         CONSTANT HEAD =           0.0000
               WELLS =           0.0000                 WELLS =           0.0000
     HEAD DEP BOUNDS =       15140.0361       HEAD DEP BOUNDS =        1019.3475

            TOTAL IN =       15140.0361              TOTAL IN =        1019.3475

          OUT:                                     OUT:
          ----                                     ----
             STORAGE =       11631.6445               STORAGE =         495.4124
       CONSTANT HEAD =           0.0000         CONSTANT HEAD =           0.0000
               WELLS =           0.0000                 WELLS =           0.0000
     HEAD DEP BOUNDS =        3508.3708       HEAD DEP BOUNDS =         523.9091

           TOTAL OUT =       15140.0156             TOTAL OUT =        1019.3215

            IN - OUT =       2.0508E-02              IN - OUT =       2.6062E-02

 PERCENT DISCREPANCY =           0.00     PERCENT DISCREPANCY =           0.00






         TIME SUMMARY AT END OF TIME STEP    7 IN STRESS PERIOD    2
                    SECONDS     MINUTES      HOURS       DAYS        YEARS
                    -----------------------------------------------------------
   TIME STEP LENGTH  86400.      1440.0      24.000      1.0000     2.73785E-03
 STRESS PERIOD TIME 6.04800E+05  10080.      168.00      7.0000     1.91650E-02
         TOTAL TIME 6.91200E+05  11520.      192.00      8.0000     2.19028E-02
1
 
 SOLVING FOR HEAD 

 OUTPUT CONTROL FOR STRESS PERIOD    2   TIME STEP    8
    SAVE HEAD FOR ALL LAYERS
    SAVE DRAWDOWN FOR ALL LAYERS
    SAVE BUDGET
    PRINT HEAD FOR ALL LAYERS
    PRINT BUDGET
 UBDSV1 SAVING "         STORAGE" ON UNIT  53 AT TIME STEP  8, STRESS PERIOD   2
 UBDSV2 SAVING "   CONSTANT HEAD" ON UNIT  53 AT TIME STEP  8, STRESS PERIOD   2
 UBDSV1 SAVING "FLOW RIGHT FACE " ON UNIT  53 AT TIME STEP  8, STRESS PERIOD   2
 UBDSV1 SAVING "FLOW FRONT FACE " ON UNIT  53 AT TIME STEP  8, STRESS PERIOD   2
 UBDSV1 SAVING "FLOW LOWER FACE " ON UNIT  53 AT TIME STEP  8, STRESS PERIOD   2
1
              HEAD IN LAYER   1 AT END OF TIME STEP   8 IN STRESS PERIOD    2
  ---------------------------------------------------------------------------

            1           2           3           4           5
 ............................................................
   1    9.997       6.731       3.991       1.831      2.1947E-03
   2    9.997       6.731       3.991       1.831      2.1947E-03
   3    9.997       6.731       3.991       1.831      2.1947E-03
   4    9.997       6.731       3.991       1.831      2.1947E-03
   5    9.997       6.731       3.991       1.831      2.1947E-03
1
              HEAD IN LAYER   2 AT END OF TIME STEP   8 IN STRESS PERIOD    2
  ---------------------------------------------------------------------------

            1           2           3           4           5
 ............................................................
   1    9.997       6.731       3.991       1.831      2.1947E-03
   2    9.997       6.731       3.991       1.831      2.1947E-03
   3    9.997       6.731       3.991       1.831      2.1947E-03
   4    9.997       6.731       3.991       1.831      2.1947E-03
   5    9.997       6.731       3.991       1.831      2.1947E-03
1
              HEAD IN LAYER   3 AT END OF TIME STEP   8 IN STRESS PERIOD    2
  ---------------------------------------------------------------------------

            1           2           3           4           5
 ............................................................
   1    9.997       6.731       3.991       1.831      2.1947E-03
   2    9.997       6.731       3.991       1.831      2.1947E-03
   3    9.997       6.731       3.991       1.831      2.1947E-03
   4    9.997       6.731       3.991       1.831      2.1947E-03
   5    9.997       6.731       3.991       1.831      2.1947E-03
1
              HEAD IN LAYER   4 AT END OF TIME STEP   8 IN STRESS PERIOD    2
  ---------------------------------------------------------------------------

            1           2           3           4           5
 ............................................................
   1    9.997       6.731       3.991       1.831      2.1947E-03
   2    9.997       6.731       3.991       1.831      2.1947E-03
   3    9.997       6.731       3.991       1.831      2.1947E-03
   4    9.997       6.731       3.991       1.831      2.1947E-03
   5    9.997       6.731       3.991       1.831      2.1947E-03
1
              HEAD IN LAYER   5 AT END OF TIME STEP   8 IN STRESS PERIOD    2
  ---------------------------------------------------------------------------

            1           2           3           4           5
 ............................................................
   1    9.997       6.731       3.991       1.831      2.1947E-03
   2    9.997       6.731       3.991       1.831      2.1947E-03
   3    9.997       6.731       3.991       1.831      2.1947E-03
   4    9.997       6.731       3.991       1.831      2.1947E-03
   5    9.997       6.731       3.991       1.831      2.1947E-03

 HEAD WILL BE SAVED ON UNIT   51 AT END OF TIME STEP    8, STRESS PERIOD    2

 DRAWDOWN WILL BE SAVED ON UNIT   52 AT END OF TIME STEP    8, STRESS PERIOD    2
1
  VOLUMETRIC BUDGET FOR ENTIRE MODEL AT END OF TIME STEP    8, STRESS PERIOD   2
  ------------------------------------------------------------------------------

     CUMULATIVE VOLUMES      L**3       RATES FOR THIS TIME STEP      L**3/T
     ------------------                 ------------------------

           IN:                                      IN:
           ---                                      ---
             STORAGE =           0.0000               STORAGE =           0.0000
       CONSTANT HEAD =           0.0000         CONSTANT HEAD =           0.0000
               WELLS =           0.0000                 WELLS =           0.0000
     HEAD DEP BOUNDS =       16119.9355       HEAD DEP BOUNDS =         979.8997

            TOTAL IN =       16119.9355              TOTAL IN =         979.8997

          OUT:                                     OUT:
          ----                                     ----
             STORAGE =       12062.8477               STORAGE =         431.2034
       CONSTANT HEAD =           0.0000         CONSTANT HEAD =           0.0000
               WELLS =           0.0000                 WELLS =           0.0000
     HEAD DEP BOUNDS =        4057.0432       HEAD DEP BOUNDS =         548.6724

           TOTAL OUT =       16119.8906             TOTAL OUT =         979.8758

            IN - OUT =       4.4922E-02              IN - OUT =       2.3865E-02

 PERCENT DISCREPANCY =           0.00     PERCENT DISCREPANCY =           0.00






         TIME SUMMARY AT END OF TIME STEP    8 IN STRESS PERIOD    2
                    SECONDS     MINUTES      HOURS       DAYS        YEARS
                    -----------------------------------------------------------
   TIME STEP LENGTH  86400.      1440.0      24.000      1.0000     2.73785E-03
 STRESS PERIOD TIME 6.91200E+05  11520.      192.00      8.0000     2.19028E-02
         TOTAL TIME 7.77600E+05  12960.      216.00      9.0000     2.46407E-02
1
 
 SOLVING FOR HEAD 

 OUTPUT CONTROL FOR STRESS PERIOD    2   TIME STEP    9
    SAVE HEAD FOR ALL LAYERS
    SAVE DRAWDOWN FOR ALL LAYERS
    SAVE BUDGET
    PRINT HEAD FOR ALL LAYERS
    PRINT BUDGET
 UBDSV1 SAVING "         STORAGE" ON UNIT  53 AT TIME STEP  9, STRESS PERIOD   2
 UBDSV2 SAVING "   CONSTANT HEAD" ON UNIT  53 AT TIME STEP  9, STRESS PERIOD   2
 UBDSV1 SAVING "FLOW RIGHT FACE " ON UNIT  53 AT TIME STEP  9, STRESS PERIOD   2
 UBDSV1 SAVING "FLOW FRONT FACE " ON UNIT  53 AT TIME STEP  9, STRESS PERIOD   2
 UBDSV1 SAVING "FLOW LOWER FACE " ON UNIT  53 AT TIME STEP  9, STRESS PERIOD   2
1
              HEAD IN LAYER   1 AT END OF TIME STEP   9 IN STRESS PERIOD    2
  ---------------------------------------------------------------------------

            1           2           3           4           5
 ............................................................
   1    9.997       6.840       4.119       1.908      2.2862E-03
   2    9.997       6.840       4.119       1.908      2.2862E-03
   3    9.997       6.840       4.119       1.908      2.2862E-03
   4    9.997       6.840       4.119       1.908      2.2862E-03
   5    9.997       6.840       4.119       1.908      2.2862E-03
1
              HEAD IN LAYER   2 AT END OF TIME STEP   9 IN STRESS PERIOD    2
  ---------------------------------------------------------------------------

            1           2           3           4           5
 ............................................................
   1    9.997       6.840       4.119       1.908      2.2862E-03
   2    9.997       6.840       4.119       1.908      2.2862E-03
   3    9.997       6.840       4.119       1.908      2.2862E-03
   4    9.997       6.840       4.119       1.908      2.2862E-03
   5    9.997       6.840       4.119       1.908      2.2862E-03
1
              HEAD IN LAYER   3 AT END OF TIME STEP   9 IN STRESS PERIOD    2
  ---------------------------------------------------------------------------

            1           2           3           4           5
 ............................................................
   1    9.997       6.840       4.119       1.908      2.2862E-03
   2    9.997       6.840       4.119       1.908      2.2862E-03
   3    9.997       6.840       4.119       1.908      2.2862E-03
   4    9.997       6.840       4.119       1.908      2.2862E-03
   5    9.997       6.840       4.119       1.908      2.2862E-03
1
              HEAD IN LAYER   4 AT END OF TIME STEP   9 IN STRESS PERIOD    2
  ---------------------------------------------------------------------------

            1           2           3           4           5
 ............................................................
   1    9.997       6.840       4.119       1.908      2.2862E-03
   2    9.997       6.840       4.119       1.908      2.2862E-03
   3    9.997       6.840       4.119       1.908      2.2862E-03
   4    9.997       6.840       4.119       1.908      2.2862E-03
   5    9.997       6.840       4.119       1.908      2.2862E-03
1
              HEAD IN LAYER   5 AT END OF TIME STEP   9 IN STRESS PERIOD    2
  ---------------------------------------------------------------------------

            1           2           3           4           5
 ............................................................
   1    9.997       6.840       4.119       1.908      2.2862E-03
   2    9.997       6.840       4.119       1.908      2.2862E-03
   3    9.997       6.840       4.119       1.908      2.2862E-03
   4    9.997       6.840       4.119       1.908      2.2862E-03
   5    9.997       6.840       4.119       1.908      2.2862E-03

 HEAD WILL BE SAVED ON UNIT   51 AT END OF TIME STEP    9, STRESS PERIOD    2

 DRAWDOWN WILL BE SAVED ON UNIT   52 AT END OF TIME STEP    9, STRESS PERIOD    2
1
  VOLUMETRIC BUDGET FOR ENTIRE MODEL AT END OF TIME STEP    9, STRESS PERIOD   2
  ------------------------------------------------------------------------------

     CUMULATIVE VOLUMES      L**3       RATES FOR THIS TIME STEP      L**3/T
     ------------------                 ------------------------

           IN:                                      IN:
           ---                                      ---
             STORAGE =           0.0000               STORAGE =           0.0000
       CONSTANT HEAD =           0.0000         CONSTANT HEAD =           0.0000
               WELLS =           0.0000                 WELLS =           0.0000
     HEAD DEP BOUNDS =       17067.1211       HEAD DEP BOUNDS =         947.1856

            TOTAL IN =       17067.1211              TOTAL IN =         947.1856

          OUT:                                     OUT:
          ----                                     ----
             STORAGE =       12438.4863               STORAGE =         375.6391
       CONSTANT HEAD =           0.0000         CONSTANT HEAD =           0.0000
               WELLS =           0.0000                 WELLS =           0.0000
     HEAD DEP BOUNDS =        4628.6025       HEAD DEP BOUNDS =         571.5593

           TOTAL OUT =       17067.0898             TOTAL OUT =         947.1985

            IN - OUT =       3.1250E-02              IN - OUT =      -1.2878E-02

 PERCENT DISCREPANCY =           0.00     PERCENT DISCREPANCY =          -0.00






         TIME SUMMARY AT END OF TIME STEP    9 IN STRESS PERIOD    2
                    SECONDS     MINUTES      HOURS       DAYS        YEARS
                    -----------------------------------------------------------
   TIME STEP LENGTH  86400.      1440.0      24.000      1.0000     2.73785E-03
 STRESS PERIOD TIME 7.77600E+05  12960.      216.00      9.0000     2.46407E-02
         TOTAL TIME 8.64000E+05  14400.      240.00      10.000     2.73785E-02
1
 
 SOLVING FOR HEAD 

 OUTPUT CONTROL FOR STRESS PERIOD    2   TIME STEP   10
    SAVE HEAD FOR ALL LAYERS
    SAVE DRAWDOWN FOR ALL LAYERS
    SAVE BUDGET
    PRINT HEAD FOR ALL LAYERS
    PRINT BUDGET
 UBDSV1 SAVING "         STORAGE" ON UNIT  53 AT TIME STEP 10, STRESS PERIOD   2
 UBDSV2 SAVING "   CONSTANT HEAD" ON UNIT  53 AT TIME STEP 10, STRESS PERIOD   2
 UBDSV1 SAVING "FLOW RIGHT FACE " ON UNIT  53 AT TIME STEP 10, STRESS PERIOD   2
 UBDSV1 SAVING "FLOW FRONT FACE " ON UNIT  53 AT TIME STEP 10, STRESS PERIOD   2
 UBDSV1 SAVING "FLOW LOWER FACE " ON UNIT  53 AT TIME STEP 10, STRESS PERIOD   2
1
              HEAD IN LAYER   1 AT END OF TIME STEP  10 IN STRESS PERIOD    2
  ---------------------------------------------------------------------------

            1           2           3           4           5
 ............................................................
   1    9.997       6.931       4.231       1.977      2.3696E-03
   2    9.997       6.931       4.231       1.977      2.3696E-03
   3    9.997       6.931       4.231       1.977      2.3696E-03
   4    9.997       6.931       4.231       1.977      2.3696E-03
   5    9.997       6.931       4.231       1.977      2.3696E-03
1
              HEAD IN LAYER   2 AT END OF TIME STEP  10 IN STRESS PERIOD    2
  ---------------------------------------------------------------------------

            1           2           3           4           5
 ............................................................
   1    9.997       6.931       4.231       1.977      2.3696E-03
   2    9.997       6.931       4.231       1.977      2.3696E-03
   3    9.997       6.931       4.231       1.977      2.3696E-03
   4    9.997       6.931       4.231       1.977      2.3696E-03
   5    9.997       6.931       4.231       1.977      2.3696E-03
1
              HEAD IN LAYER   3 AT END OF TIME STEP  10 IN STRESS PERIOD    2
  ---------------------------------------------------------------------------

            1           2           3           4           5
 ............................................................
   1    9.997       6.931       4.231       1.977      2.3696E-03
   2    9.997       6.931       4.231       1.977      2.3696E-03
   3    9.997       6.931       4.231       1.977      2.3696E-03
   4    9.997       6.931       4.231       1.977      2.3696E-03
   5    9.997       6.931       4.231       1.977      2.3696E-03
1
              HEAD IN LAYER   4 AT END OF TIME STEP  10 IN STRESS PERIOD    2
  ---------------------------------------------------------------------------

            1           2           3           4           5
 ............................................................
   1    9.997       6.931       4.231       1.977      2.3696E-03
   2    9.997       6.931       4.231       1.977      2.3696E-03
   3    9.997       6.931       4.231       1.977      2.3696E-03
   4    9.997       6.931       4.231       1.977      2.3696E-03
   5    9.997       6.931       4.231       1.977      2.3696E-03
1
              HEAD IN LAYER   5 AT END OF TIME STEP  10 IN STRESS PERIOD    2
  ---------------------------------------------------------------------------

            1           2           3           4           5
 ............................................................
   1    9.997       6.931       4.231       1.977      2.3696E-03
   2    9.997       6.931       4.231       1.977      2.3696E-03
   3    9.997       6.931       4.231       1.977      2.3696E-03
   4    9.997       6.931       4.231       1.977      2.3696E-03
   5    9.997       6.931       4.231       1.977      2.3696E-03

 HEAD WILL BE SAVED ON UNIT   51 AT END OF TIME STEP   10, STRESS PERIOD    2

 DRAWDOWN WILL BE SAVED ON UNIT   52 AT END OF TIME STEP   10, STRESS PERIOD    2
1
  VOLUMETRIC BUDGET FOR ENTIRE MODEL AT END OF TIME STEP   10, STRESS PERIOD   2
  ------------------------------------------------------------------------------

     CUMULATIVE VOLUMES      L**3       RATES FOR THIS TIME STEP      L**3/T
     ------------------                 ------------------------

           IN:                                      IN:
           ---                                      ---
             STORAGE =           0.0000               STORAGE =           0.0000
       CONSTANT HEAD =           0.0000         CONSTANT HEAD =           0.0000
               WELLS =           0.0000                 WELLS =           0.0000
     HEAD DEP BOUNDS =       17986.8633       HEAD DEP BOUNDS =         919.7430

            TOTAL IN =       17986.8633              TOTAL IN =         919.7430

          OUT:                                     OUT:
          ----                                     ----
             STORAGE =       12765.8975               STORAGE =         327.4107
       CONSTANT HEAD =           0.0000         CONSTANT HEAD =           0.0000
               WELLS =           0.0000                 WELLS =           0.0000
     HEAD DEP BOUNDS =        5221.0127       HEAD DEP BOUNDS =         592.4101

           TOTAL OUT =       17986.9102             TOTAL OUT =         919.8208

            IN - OUT =      -4.6875E-02              IN - OUT =      -7.7759E-02

 PERCENT DISCREPANCY =          -0.00     PERCENT DISCREPANCY =          -0.01






         TIME SUMMARY AT END OF TIME STEP   10 IN STRESS PERIOD    2
                    SECONDS     MINUTES      HOURS       DAYS        YEARS
                    -----------------------------------------------------------
   TIME STEP LENGTH  86400.      1440.0      24.000      1.0000     2.73785E-03
 STRESS PERIOD TIME 8.64000E+05  14400.      240.00      10.000     2.73785E-02
         TOTAL TIME 9.50400E+05  15840.      264.00      11.000     3.01164E-02
1
 
 SOLVING FOR HEAD 

[...]
   2    9.998       7.499       5.000       2.502      2.9983E-03
   3    9.998       7.499       5.000       2.502      2.9983E-03
   4    9.998       7.499       5.000       2.502      2.9983E-03
   5    9.998       7.499       5.000       2.502      2.9983E-03

 HEAD WILL BE SAVED ON UNIT   51 AT END OF TIME STEP   97, STRESS PERIOD    3

 DRAWDOWN WILL BE SAVED ON UNIT   52 AT END OF TIME STEP   97, STRESS PERIOD    3
1
  VOLUMETRIC BUDGET FOR ENTIRE MODEL AT END OF TIME STEP   97, STRESS PERIOD   3
  ------------------------------------------------------------------------------

     CUMULATIVE VOLUMES      L**3       RATES FOR THIS TIME STEP      L**3/T
     ------------------                 ------------------------

           IN:                                      IN:
           ---                                      ---
             STORAGE =           0.0000               STORAGE =           0.0000
       CONSTANT HEAD =           0.0000         CONSTANT HEAD =           0.0000
               WELLS =           0.0000                 WELLS =           0.0000
     HEAD DEP BOUNDS =      159279.7344       HEAD DEP BOUNDS =         749.5200

            TOTAL IN =      159279.7344              TOTAL IN =         749.5200

          OUT:                                     OUT:
          ----                                     ----
             STORAGE =       15001.0791               STORAGE =           0.0000
       CONSTANT HEAD =           0.0000         CONSTANT HEAD =           0.0000
               WELLS =           0.0000                 WELLS =           0.0000
     HEAD DEP BOUNDS =      144289.3125       HEAD DEP BOUNDS =         749.5873

           TOTAL OUT =      159290.3906             TOTAL OUT =         749.5873

            IN - OUT =         -10.6562              IN - OUT =      -6.7383E-02

 PERCENT DISCREPANCY =          -0.01     PERCENT DISCREPANCY =          -0.01






         TIME SUMMARY AT END OF TIME STEP   97 IN STRESS PERIOD    3
                    SECONDS     MINUTES      HOURS       DAYS        YEARS
                    -----------------------------------------------------------
   TIME STEP LENGTH  86400.      1440.0      24.000      1.0000     2.73785E-03
 STRESS PERIOD TIME 8.38080E+06 1.39680E+05  2328.0      97.000     0.26557    
         TOTAL TIME 1.71072E+07 2.85120E+05  4752.0      198.00     0.54209    
1
 
 SOLVING FOR HEAD 

 OUTPUT CONTROL FOR STRESS PERIOD    3   TIME STEP   98
    SAVE HEAD FOR ALL LAYERS
    SAVE DRAWDOWN FOR ALL LAYERS
    SAVE BUDGET
    PRINT HEAD FOR ALL LAYERS
    PRINT BUDGET
 UBDSV1 SAVING "         STORAGE" ON UNIT  53 AT TIME STEP 98, STRESS PERIOD   3
 UBDSV2 SAVING "   CONSTANT HEAD" ON UNIT  53 AT TIME STEP 98, STRESS PERIOD   3
 UBDSV1 SAVING "FLOW RIGHT FACE " ON UNIT  53 AT TIME STEP 98, STRESS PERIOD   3
 UBDSV1 SAVING "FLOW FRONT FACE " ON UNIT  53 AT TIME STEP 98, STRESS PERIOD   3
 UBDSV1 SAVING "FLOW LOWER FACE " ON UNIT  53 AT TIME STEP 98, STRESS PERIOD   3
1
              HEAD IN LAYER   1 AT END OF TIME STEP  98 IN STRESS PERIOD    3
  ---------------------------------------------------------------------------

            1           2           3           4           5
 ............................................................
   1    9.998       7.499       5.000       2.502      2.9983E-03
   2    9.998       7.499       5.000       2.502      2.9983E-03
   3    9.998       7.499       5.000       2.502      2.9983E-03
   4    9.998       7.499       5.000       2.502      2.9983E-03
   5    9.998       7.499       5.000       2.502      2.9983E-03
1
              HEAD IN LAYER   2 AT END OF TIME STEP  98 IN STRESS PERIOD    3
  ---------------------------------------------------------------------------

            1           2           3           4           5
 ............................................................
   1    9.998       7.499       5.000       2.502      2.9983E-03
   2    9.998       7.499       5.000       2.502      2.9983E-03
   3    9.998       7.499       5.000       2.502      2.9983E-03
   4    9.998       7.499       5.000       2.502      2.9983E-03
   5    9.998       7.499       5.000       2.502      2.9983E-03
1
              HEAD IN LAYER   3 AT END OF TIME STEP  98 IN STRESS PERIOD    3
  ---------------------------------------------------------------------------

            1           2           3           4           5
 ............................................................
   1    9.998       7.499       5.000       2.502      2.9983E-03
   2    9.998       7.499       5.000       2.502      2.9983E-03
   3    9.998       7.499       5.000       2.502      2.9983E-03
   4    9.998       7.499       5.000       2.502      2.9983E-03
   5    9.998       7.499       5.000       2.502      2.9983E-03
1
              HEAD IN LAYER   4 AT END OF TIME STEP  98 IN STRESS PERIOD    3
  ---------------------------------------------------------------------------

            1           2           3           4           5
 ............................................................
   1    9.998       7.499       5.000       2.502      2.9983E-03
   2    9.998       7.499       5.000       2.502      2.9983E-03
   3    9.998       7.499       5.000       2.502      2.9983E-03
   4    9.998       7.499       5.000       2.502      2.9983E-03
   5    9.998       7.499       5.000       2.502      2.9983E-03
1
              HEAD IN LAYER   5 AT END OF TIME STEP  98 IN STRESS PERIOD    3
  ---------------------------------------------------------------------------

            1           2           3           4           5
 ............................................................
   1    9.998       7.499       5.000       2.502      2.9983E-03
   2    9.998       7.499       5.000       2.502      2.9983E-03
   3    9.998       7.499       5.000       2.502      2.9983E-03
   4    9.998       7.499       5.000       2.502      2.9983E-03
   5    9.998       7.499       5.000       2.502      2.9983E-03

 HEAD WILL BE SAVED ON UNIT   51 AT END OF TIME STEP   98, STRESS PERIOD    3

 DRAWDOWN WILL BE SAVED ON UNIT   52 AT END OF TIME STEP   98, STRESS PERIOD    3
1
  VOLUMETRIC BUDGET FOR ENTIRE MODEL AT END OF TIME STEP   98, STRESS PERIOD   3
  ------------------------------------------------------------------------------

     CUMULATIVE VOLUMES      L**3       RATES FOR THIS TIME STEP      L**3/T
     ------------------                 ------------------------

           IN:                                      IN:
           ---                                      ---
             STORAGE =           0.0000               STORAGE =           0.0000
       CONSTANT HEAD =           0.0000         CONSTANT HEAD =           0.0000
               WELLS =           0.0000                 WELLS =           0.0000
     HEAD DEP BOUNDS =      160029.2500       HEAD DEP BOUNDS =         749.5200

            TOTAL IN =      160029.2500              TOTAL IN =         749.5200

          OUT:                                     OUT:
          ----                                     ----
             STORAGE =       15001.0791               STORAGE =           0.0000
       CONSTANT HEAD =           0.0000         CONSTANT HEAD =           0.0000
               WELLS =           0.0000                 WELLS =           0.0000
     HEAD DEP BOUNDS =      145038.9062       HEAD DEP BOUNDS =         749.5873

           TOTAL OUT =      160039.9844             TOTAL OUT =         749.5873

            IN - OUT =         -10.7344              IN - OUT =      -6.7383E-02

 PERCENT DISCREPANCY =          -0.01     PERCENT DISCREPANCY =          -0.01






         TIME SUMMARY AT END OF TIME STEP   98 IN STRESS PERIOD    3
                    SECONDS     MINUTES      HOURS       DAYS        YEARS
                    -----------------------------------------------------------
   TIME STEP LENGTH  86400.      1440.0      24.000      1.0000     2.73785E-03
 STRESS PERIOD TIME 8.46720E+06 1.41120E+05  2352.0      98.000     0.26831    
         TOTAL TIME 1.71936E+07 2.86560E+05  4776.0      199.00     0.54483    
1
 
 SOLVING FOR HEAD 

 OUTPUT CONTROL FOR STRESS PERIOD    3   TIME STEP   99
    SAVE HEAD FOR ALL LAYERS
    SAVE DRAWDOWN FOR ALL LAYERS
    SAVE BUDGET
    PRINT HEAD FOR ALL LAYERS
    PRINT BUDGET
 UBDSV1 SAVING "         STORAGE" ON UNIT  53 AT TIME STEP 99, STRESS PERIOD   3
 UBDSV2 SAVING "   CONSTANT HEAD" ON UNIT  53 AT TIME STEP 99, STRESS PERIOD   3
 UBDSV1 SAVING "FLOW RIGHT FACE " ON UNIT  53 AT TIME STEP 99, STRESS PERIOD   3
 UBDSV1 SAVING "FLOW FRONT FACE " ON UNIT  53 AT TIME STEP 99, STRESS PERIOD   3
 UBDSV1 SAVING "FLOW LOWER FACE " ON UNIT  53 AT TIME STEP 99, STRESS PERIOD   3
1
              HEAD IN LAYER   1 AT END OF TIME STEP  99 IN STRESS PERIOD    3
  ---------------------------------------------------------------------------

            1           2           3           4           5
 ............................................................
   1    9.998       7.499       5.000       2.502      2.9983E-03
   2    9.998       7.499       5.000       2.502      2.9983E-03
   3    9.998       7.499       5.000       2.502      2.9983E-03
   4    9.998       7.499       5.000       2.502      2.9983E-03
   5    9.998       7.499       5.000       2.502      2.9983E-03
1
              HEAD IN LAYER   2 AT END OF TIME STEP  99 IN STRESS PERIOD    3
  ---------------------------------------------------------------------------

            1           2           3           4           5
 ............................................................
   1    9.998       7.499       5.000       2.502      2.9983E-03
   2    9.998       7.499       5.000       2.502      2.9983E-03
   3    9.998       7.499       5.000       2.502      2.9983E-03
   4    9.998       7.499       5.000       2.502      2.9983E-03
   5    9.998       7.499       5.000       2.502      2.9983E-03
1
              HEAD IN LAYER   3 AT END OF TIME STEP  99 IN STRESS PERIOD    3
  ---------------------------------------------------------------------------

            1           2           3           4           5
 ............................................................
   1    9.998       7.499       5.000       2.502      2.9983E-03
   2    9.998       7.499       5.000       2.502      2.9983E-03
   3    9.998       7.499       5.000       2.502      2.9983E-03
   4    9.998       7.499       5.000       2.502      2.9983E-03
   5    9.998       7.499       5.000       2.502      2.9983E-03
1
              HEAD IN LAYER   4 AT END OF TIME STEP  99 IN STRESS PERIOD    3
  ---------------------------------------------------------------------------

            1           2           3           4           5
 ............................................................
   1    9.998       7.499       5.000       2.502      2.9983E-03
   2    9.998       7.499       5.000       2.502      2.9983E-03
   3    9.998       7.499       5.000       2.502      2.9983E-03
   4    9.998       7.499       5.000       2.502      2.9983E-03
   5    9.998       7.499       5.000       2.502      2.9983E-03
1
              HEAD IN LAYER   5 AT END OF TIME STEP  99 IN STRESS PERIOD    3
  ---------------------------------------------------------------------------

            1           2           3           4           5
 ............................................................
   1    9.998       7.499       5.000       2.502      2.9983E-03
   2    9.998       7.499       5.000       2.502      2.9983E-03
   3    9.998       7.499       5.000       2.502      2.9983E-03
   4    9.998       7.499       5.000       2.502      2.9983E-03
   5    9.998       7.499       5.000       2.502      2.9983E-03

 HEAD WILL BE SAVED ON UNIT   51 AT END OF TIME STEP   99, STRESS PERIOD    3

 DRAWDOWN WILL BE SAVED ON UNIT   52 AT END OF TIME STEP   99, STRESS PERIOD    3
1
  VOLUMETRIC BUDGET FOR ENTIRE MODEL AT END OF TIME STEP   99, STRESS PERIOD   3
  ------------------------------------------------------------------------------

     CUMULATIVE VOLUMES      L**3       RATES FOR THIS TIME STEP      L**3/T
     ------------------                 ------------------------

           IN:                                      IN:
           ---                                      ---
             STORAGE =           0.0000               STORAGE =           0.0000
       CONSTANT HEAD =           0.0000         CONSTANT HEAD =           0.0000
               WELLS =           0.0000                 WELLS =           0.0000
     HEAD DEP BOUNDS =      160778.7656       HEAD DEP BOUNDS =         749.5200

            TOTAL IN =      160778.7656              TOTAL IN =         749.5200

          OUT:                                     OUT:
          ----                                     ----
             STORAGE =       15001.0791               STORAGE =           0.0000
       CONSTANT HEAD =           0.0000         CONSTANT HEAD =           0.0000
               WELLS =           0.0000                 WELLS =           0.0000
     HEAD DEP BOUNDS =      145788.5000       HEAD DEP BOUNDS =         749.5873

           TOTAL OUT =      160789.5781             TOTAL OUT =         749.5873

            IN - OUT =         -10.8125              IN - OUT =      -6.7383E-02

 PERCENT DISCREPANCY =          -0.01     PERCENT DISCREPANCY =          -0.01






         TIME SUMMARY AT END OF TIME STEP   99 IN STRESS PERIOD    3
                    SECONDS     MINUTES      HOURS       DAYS        YEARS
                    -----------------------------------------------------------
   TIME STEP LENGTH  86400.      1440.0      24.000      1.0000     2.73785E-03
 STRESS PERIOD TIME 8.55360E+06 1.42560E+05  2376.0      99.000     0.27105    
         TOTAL TIME 1.72800E+07 2.88000E+05  4800.0      200.00     0.54757    
1
 
 SOLVING FOR HEAD 

 OUTPUT CONTROL FOR STRESS PERIOD    3   TIME STEP  100
    SAVE HEAD FOR ALL LAYERS
    SAVE DRAWDOWN FOR ALL LAYERS
    SAVE BUDGET
    PRINT HEAD FOR ALL LAYERS
    PRINT BUDGET
 UBDSV1 SAVING "         STORAGE" ON UNIT  53 AT TIME STEP100, STRESS PERIOD   3
 UBDSV2 SAVING "   CONSTANT HEAD" ON UNIT  53 AT TIME STEP100, STRESS PERIOD   3
 UBDSV1 SAVING "FLOW RIGHT FACE " ON UNIT  53 AT TIME STEP100, STRESS PERIOD   3
 UBDSV1 SAVING "FLOW FRONT FACE " ON UNIT  53 AT TIME STEP100, STRESS PERIOD   3
 UBDSV1 SAVING "FLOW LOWER FACE " ON UNIT  53 AT TIME STEP100, STRESS PERIOD   3
1
              HEAD IN LAYER   1 AT END OF TIME STEP 100 IN STRESS PERIOD    3
  ---------------------------------------------------------------------------

            1           2           3           4           5
 ............................................................
   1    9.998       7.499       5.000       2.502      2.9983E-03
   2    9.998       7.499       5.000       2.502      2.9983E-03
   3    9.998       7.499       5.000       2.502      2.9983E-03
   4    9.998       7.499       5.000       2.502      2.9983E-03
   5    9.998       7.499       5.000       2.502      2.9983E-03
1
              HEAD IN LAYER   2 AT END OF TIME STEP 100 IN STRESS PERIOD    3
  ---------------------------------------------------------------------------

            1           2           3           4           5
 ............................................................
   1    9.998       7.499       5.000       2.502      2.9983E-03
   2    9.998       7.499       5.000       2.502      2.9983E-03
   3    9.998       7.499       5.000       2.502      2.9983E-03
   4    9.998       7.499       5.000       2.502      2.9983E-03
   5    9.998       7.499       5.000       2.502      2.9983E-03
1
              HEAD IN LAYER   3 AT END OF TIME STEP 100 IN STRESS PERIOD    3
  ---------------------------------------------------------------------------

            1           2           3           4           5
 ............................................................
   1    9.998       7.499       5.000       2.502      2.9983E-03
   2    9.998       7.499       5.000       2.502      2.9983E-03
   3    9.998       7.499       5.000       2.502      2.9983E-03
   4    9.998       7.499       5.000       2.502      2.9983E-03
   5    9.998       7.499       5.000       2.502      2.9983E-03
1
              HEAD IN LAYER   4 AT END OF TIME STEP 100 IN STRESS PERIOD    3
  ---------------------------------------------------------------------------

            1           2           3           4           5
 ............................................................
   1    9.998       7.499       5.000       2.502      2.9983E-03
   2    9.998       7.499       5.000       2.502      2.9983E-03
   3    9.998       7.499       5.000       2.502      2.9983E-03
   4    9.998       7.499       5.000       2.502      2.9983E-03
   5    9.998       7.499       5.000       2.502      2.9983E-03
1
              HEAD IN LAYER   5 AT END OF TIME STEP 100 IN STRESS PERIOD    3
  ---------------------------------------------------------------------------

            1           2           3           4           5
 ............................................................
   1    9.998       7.499       5.000       2.502      2.9983E-03
   2    9.998       7.499       5.000       2.502      2.9983E-03
   3    9.998       7.499       5.000       2.502      2.9983E-03
   4    9.998       7.499       5.000       2.502      2.9983E-03
   5    9.998       7.499       5.000       2.502      2.9983E-03

 HEAD WILL BE SAVED ON UNIT   51 AT END OF TIME STEP  100, STRESS PERIOD    3

 DRAWDOWN WILL BE SAVED ON UNIT   52 AT END OF TIME STEP  100, STRESS PERIOD    3
1
  VOLUMETRIC BUDGET FOR ENTIRE MODEL AT END OF TIME STEP  100, STRESS PERIOD   3
  ------------------------------------------------------------------------------

     CUMULATIVE VOLUMES      L**3       RATES FOR THIS TIME STEP      L**3/T
     ------------------                 ------------------------

           IN:                                      IN:
           ---                                      ---
             STORAGE =           0.0000               STORAGE =           0.0000
       CONSTANT HEAD =           0.0000         CONSTANT HEAD =           0.0000
               WELLS =           0.0000                 WELLS =           0.0000
     HEAD DEP BOUNDS =      161528.2812       HEAD DEP BOUNDS =         749.5200

            TOTAL IN =      161528.2812              TOTAL IN =         749.5200

          OUT:                                     OUT:
          ----                                     ----
             STORAGE =       15001.0791               STORAGE =           0.0000
       CONSTANT HEAD =           0.0000         CONSTANT HEAD =           0.0000
               WELLS =           0.0000                 WELLS =           0.0000
     HEAD DEP BOUNDS =      146538.0938       HEAD DEP BOUNDS =         749.5873

           TOTAL OUT =      161539.1719             TOTAL OUT =         749.5873

            IN - OUT =         -10.8906              IN - OUT =      -6.7383E-02

 PERCENT DISCREPANCY =          -0.01     PERCENT DISCREPANCY =          -0.01






         TIME SUMMARY AT END OF TIME STEP  100 IN STRESS PERIOD    3
                    SECONDS     MINUTES      HOURS       DAYS        YEARS
                    -----------------------------------------------------------
   TIME STEP LENGTH  86400.      1440.0      24.000      1.0000     2.73785E-03
 STRESS PERIOD TIME 8.64000E+06 1.44000E+05  2400.0      100.00     0.27379    
         TOTAL TIME 1.73664E+07 2.89440E+05  4824.0      201.00     0.55031    
1

 Run end date and time (yyyy/mm/dd hh:mm:ss): 2021/10/02 14:40:08
 Elapsed run time:  0.212 Seconds

